*SPEF "1481-1998"
*DESIGN "fpga_core"
*DATE "Tue Oct 27 12:28:55 2020"
*
*
*
*
*DIVIDER /
*DELIMITER :
*T_UNIT 1 NS
*C_UNIT 1 PF
*R_UNIT 1 KOHM
*L_UNIT 1 HENRY

// XY_UNIT 1 UM
// PARASITIC_TECH nominal at 25.000 degree

*PORTS
prog_clk[0] I *C 0.297 494.360
Test_en[0] I *C 998.823 499.800
clk[0] I *C 503.700 995.278
gfpga_pad_GPIO_A[0] O *C 428.260 995.278
gfpga_pad_GPIO_A[1] O *C 569.020 995.278
gfpga_pad_GPIO_A[2] O *C 998.823 397.800
gfpga_pad_GPIO_A[3] O *C 998.823 615.740
gfpga_pad_GPIO_A[4] O *C 401.120 0.243
gfpga_pad_GPIO_A[5] O *C 574.080 0.243
gfpga_pad_GPIO_A[6] O *C 0.297 406.300
gfpga_pad_GPIO_A[7] O *C 0.297 594.320
gfpga_pad_GPIO_IE[0] O *C 396.060 995.278
gfpga_pad_GPIO_IE[1] O *C 591.100 995.278
gfpga_pad_GPIO_IE[2] O *C 998.823 387.260
gfpga_pad_GPIO_IE[3] O *C 998.823 583.440
gfpga_pad_GPIO_IE[4] O *C 397.900 0.243
gfpga_pad_GPIO_IE[5] O *C 592.940 0.243
gfpga_pad_GPIO_IE[6] O *C 0.297 403.920
gfpga_pad_GPIO_IE[7] O *C 0.297 600.100
gfpga_pad_GPIO_OE[0] O *C 385.480 995.278
gfpga_pad_GPIO_OE[1] O *C 580.520 995.278
gfpga_pad_GPIO_OE[2] O *C 998.823 378.760
gfpga_pad_GPIO_OE[3] O *C 998.823 574.600
gfpga_pad_GPIO_OE[4] O *C 386.400 0.243
gfpga_pad_GPIO_OE[5] O *C 581.440 0.243
gfpga_pad_GPIO_OE[6] O *C 0.297 404.600
gfpga_pad_GPIO_OE[7] O *C 0.297 601.800
gfpga_pad_GPIO_Y[0] I *C 372.140 995.278
gfpga_pad_GPIO_Y[1] I *C 599.840 995.278
gfpga_pad_GPIO_Y[2] I *C 998.823 423.640
gfpga_pad_GPIO_Y[3] I *C 998.823 582.760
gfpga_pad_GPIO_Y[4] I *C 362.940 0.243
gfpga_pad_GPIO_Y[5] I *C 555.220 0.243
gfpga_pad_GPIO_Y[6] I *C 0.297 393.720
gfpga_pad_GPIO_Y[7] I *C 0.297 562.360
ccff_head[0] I *C 637.560 995.278
ccff_tail[0] O *C 0.297 332.520
VDD I *C 499.560 497.760
VSS I *C 499.560 497.760

*D_NET prog_clk[0] 0.06266714 //LENGTH 537.845 LUMPCC 0.003215895 DR

*CONN
*P prog_clk[0] I *L 0 *C 0.525 494.360
*I cts_inv_69407211:A I *L 0.005046 *C 451.105 444.920
*I cts_inv_69397210:A I *L 0.005046 *C 0.810 496.240
*N prog_clk[0]:3 *C 0.810 496.240
*N prog_clk[0]:4 *C 0.920 496.150
*N prog_clk[0]:5 *C 451.105 444.920
*N prog_clk[0]:6 *C 451.260 445.010
*N prog_clk[0]:7 *C 451.260 445.010
*N prog_clk[0]:8 *C 451.260 450.125
*N prog_clk[0]:9 *C 451.720 450.160
*N prog_clk[0]:10 *C 451.720 459.658
*N prog_clk[0]:11 *C 451.720 459.680
*N prog_clk[0]:12 *C 444.360 459.680
*N prog_clk[0]:13 *C 444.360 459.658
*N prog_clk[0]:14 *C 444.360 457.663
*N prog_clk[0]:15 *C 444.360 457.640
*N prog_clk[0]:16 *C 443.520 457.640
*N prog_clk[0]:17 *C 443.519 457.640
*N prog_clk[0]:18 *C 432.740 457.640
*N prog_clk[0]:19 *C 382.740 457.640
*N prog_clk[0]:20 *C 333.040 457.640
*N prog_clk[0]:21 *C 333.040 457.618
*N prog_clk[0]:22 *C 333.040 444.743
*N prog_clk[0]:23 *C 333.040 444.720
*N prog_clk[0]:24 *C 300.620 444.720
*N prog_clk[0]:25 *C 250.620 444.720
*N prog_clk[0]:26 *C 219.520 444.720
*N prog_clk[0]:27 *C 219.519 444.720
*N prog_clk[0]:28 *C 200.620 444.720
*N prog_clk[0]:29 *C 150.620 444.720
*N prog_clk[0]:30 *C 100.620 444.720
*N prog_clk[0]:31 *C 50.620 444.720
*N prog_clk[0]:32 *C 0.920 444.720
*N prog_clk[0]:33 *C 0.920 444.743
*N prog_clk[0]:34 *C 0.920 493.930
*N prog_clk[0]:35 *C 0.920 493.930
*N prog_clk[0]:36 *C 0.920 494.360

*CAP
0 prog_clk[0] 3.319497e-05
1 cts_inv_69407211:A 1e-06
2 cts_inv_69397210:A 1e-06
3 prog_clk[0]:3 2.837615e-05
4 prog_clk[0]:4 0.0001458076
5 prog_clk[0]:5 6.08141e-05
6 prog_clk[0]:6 8.33204e-05
7 prog_clk[0]:7 0.0003902226
8 prog_clk[0]:8 0.0004024125
9 prog_clk[0]:9 0.0006700392
10 prog_clk[0]:10 0.0005931553
11 prog_clk[0]:11 0.0003450501
12 prog_clk[0]:12 0.0003450501
13 prog_clk[0]:13 0.000129409
14 prog_clk[0]:14 0.000129409
15 prog_clk[0]:15 4.152679e-05
16 prog_clk[0]:16 4.152679e-05
17 prog_clk[0]:17 0.0004288284
18 prog_clk[0]:18 0.002495072
19 prog_clk[0]:19 0.004412387
20 prog_clk[0]:20 0.002346144
21 prog_clk[0]:21 0.0006759483
22 prog_clk[0]:22 0.0006759483
23 prog_clk[0]:23 0.002914833
24 prog_clk[0]:24 0.007088983
25 prog_clk[0]:25 0.005621842
26 prog_clk[0]:26 0.001447692
27 prog_clk[0]:27 0.000877778
28 prog_clk[0]:28 0.00320401
29 prog_clk[0]:29 0.004650576
30 prog_clk[0]:30 0.005063133
31 prog_clk[0]:31 0.005850535
32 prog_clk[0]:32 0.003111746
33 prog_clk[0]:33 0.002439527
34 prog_clk[0]:34 0.002583501
35 prog_clk[0]:35 5.616018e-05
36 prog_clk[0]:36 6.528661e-05
37 prog_clk[0]:19 cbx_1__1__0_chanx_right_out[5]:6 2.742047e-05
38 prog_clk[0]:18 cbx_1__1__0_chanx_right_out[5]:6 7.474702e-05
39 prog_clk[0]:18 cbx_1__1__0_chanx_right_out[5]:5 2.742047e-05
40 prog_clk[0]:17 cbx_1__1__0_chanx_right_out[5]:5 7.474702e-05
41 prog_clk[0]:12 grid_clb_0_right_width_0_height_0__pin_37_upper[0]:3 1.582384e-05
42 prog_clk[0]:10 sb_1__1_:bottom_left_grid_pin_37_[0] 4.271102e-05
43 prog_clk[0]:11 grid_clb_0_right_width_0_height_0__pin_37_upper[0]:4 1.582384e-05
44 prog_clk[0]:9 grid_clb_0_right_width_0_height_0__pin_37_upper[0]:2 4.271102e-05
45 prog_clk[0]:12 ctsbuf_net_1217:18 0.0001713737
46 prog_clk[0]:11 ctsbuf_net_1217:19 0.0001713737
47 prog_clk[0]:18 ctsbuf_net_1217:16 2.067302e-05
48 prog_clk[0]:17 ctsbuf_net_1217:17 2.067302e-05
49 prog_clk[0]:20 ctsbuf_net_1722:3 0.0003041428
50 prog_clk[0]:19 ctsbuf_net_1722:4 0.0003041428
51 prog_clk[0]:19 ctsbuf_net_1722:3 5.674873e-05
52 prog_clk[0]:18 ctsbuf_net_1722:4 5.674873e-05
53 prog_clk[0]:14 ctsbuf_net_1924:21 6.148428e-06
54 prog_clk[0]:15 ctsbuf_net_1924:23 1.937761e-05
55 prog_clk[0]:13 ctsbuf_net_1924:20 6.148428e-06
56 prog_clk[0]:12 ctsbuf_net_1924:23 1.501347e-05
57 prog_clk[0]:10 ctsbuf_net_1924:25 1.988796e-06
58 prog_clk[0]:11 ctsbuf_net_1924:24 1.501347e-05
59 prog_clk[0]:9 ctsbuf_net_1924:98 1.988796e-06
60 prog_clk[0]:19 ctsbuf_net_1924:15 4.291588e-05
61 prog_clk[0]:19 ctsbuf_net_1924:16 0.000644378
62 prog_clk[0]:18 ctsbuf_net_1924:16 0.0002074002
63 prog_clk[0]:18 ctsbuf_net_1924:17 0.000644378
64 prog_clk[0]:16 ctsbuf_net_1924:18 1.937761e-05
65 prog_clk[0]:17 ctsbuf_net_1924:17 0.0001644843

*RES
0 prog_clk[0] prog_clk[0]:36 0.0003526786
1 prog_clk[0]:33 prog_clk[0]:32 0.00341
2 prog_clk[0]:32 prog_clk[0]:31 0.003893166
3 prog_clk[0]:22 prog_clk[0]:21 0.005747768
4 prog_clk[0]:23 prog_clk[0]:22 0.00341
5 prog_clk[0]:21 prog_clk[0]:20 0.00341
6 prog_clk[0]:20 prog_clk[0]:19 0.003893166
7 prog_clk[0]:14 prog_clk[0]:13 0.0008906251
8 prog_clk[0]:15 prog_clk[0]:14 0.00341
9 prog_clk[0]:13 prog_clk[0]:12 0.00341
10 prog_clk[0]:12 prog_clk[0]:11 0.0005765333
11 prog_clk[0]:10 prog_clk[0]:9 0.004239955
12 prog_clk[0]:11 prog_clk[0]:10 0.00341
13 prog_clk[0]:6 prog_clk[0]:5 8.423914e-05
14 prog_clk[0]:7 prog_clk[0]:6 0.0045
15 prog_clk[0]:5 cts_inv_69407211:A 0.152
16 prog_clk[0]:3 cts_inv_69397210:A 0.152
17 prog_clk[0]:4 prog_clk[0]:3 0.0045
18 prog_clk[0]:35 prog_clk[0]:34 0.0045
19 prog_clk[0]:34 prog_clk[0]:33 0.02195871
20 prog_clk[0]:34 prog_clk[0]:4 0.001982143
21 prog_clk[0]:36 prog_clk[0]:35 0.0003839286
22 prog_clk[0]:8 prog_clk[0]:7 0.004566965
23 prog_clk[0]:9 prog_clk[0]:8 0.0002053571
24 prog_clk[0]:31 prog_clk[0]:30 0.003916666
25 prog_clk[0]:30 prog_clk[0]:29 0.003916666
26 prog_clk[0]:29 prog_clk[0]:28 0.003916666
27 prog_clk[0]:28 prog_clk[0]:27 0.001480422
28 prog_clk[0]:25 prog_clk[0]:24 0.003916666
29 prog_clk[0]:24 prog_clk[0]:23 0.002539566
30 prog_clk[0]:19 prog_clk[0]:18 0.003916666
31 prog_clk[0]:18 prog_clk[0]:17 0.000844355
32 prog_clk[0]:16 prog_clk[0]:15 6.58e-05
33 prog_clk[0]:17 prog_clk[0]:16 1e-05
34 prog_clk[0]:26 prog_clk[0]:25 0.002436167
35 prog_clk[0]:27 prog_clk[0]:26 1e-05

*END

*D_NET gfpga_pad_GPIO_IE[5] 0.02032438 //LENGTH 233.575 LUMPCC 0.001457783 DR

*CONN
*I grid_io_bottom_2__0_:gfpga_pad_GPIO_IE[0] O *L 0 *C 592.940 233.990
*P gfpga_pad_GPIO_IE[5] O *L 0 *C 592.940 0.415
*N gfpga_pad_GPIO_IE[5]:2 *C 592.940 50.415
*N gfpga_pad_GPIO_IE[5]:3 *C 592.940 100.415
*N gfpga_pad_GPIO_IE[5]:4 *C 592.940 150.415
*N gfpga_pad_GPIO_IE[5]:5 *C 592.940 200.415
*N gfpga_pad_GPIO_IE[5]:6 *C 592.940 219.519
*N gfpga_pad_GPIO_IE[5]:7 *C 592.940 219.520

*CAP
0 grid_io_bottom_2__0_:gfpga_pad_GPIO_IE[0] 0.0006099109
1 gfpga_pad_GPIO_IE[5] 0.002085714
2 gfpga_pad_GPIO_IE[5]:2 0.004084778
3 gfpga_pad_GPIO_IE[5]:3 0.003993476
4 gfpga_pad_GPIO_IE[5]:4 0.003996617
5 gfpga_pad_GPIO_IE[5]:5 0.002744198
6 gfpga_pad_GPIO_IE[5]:6 0.000741993
7 gfpga_pad_GPIO_IE[5]:7 0.0006099109
8 grid_io_bottom_2__0_:gfpga_pad_GPIO_IE[0] grid_io_bottom_2__0_:gfpga_pad_GPIO_A[0] 4.600199e-05
9 grid_io_bottom_2__0_:gfpga_pad_GPIO_IE[0] gfpga_pad_GPIO_A[5]:12 1.228535e-06
10 gfpga_pad_GPIO_IE[5] gfpga_pad_GPIO_A[5]:6 9.822991e-05
11 gfpga_pad_GPIO_IE[5]:2 gfpga_pad_GPIO_A[5]:6 6.577012e-05
12 gfpga_pad_GPIO_IE[5]:2 gfpga_pad_GPIO_A[5]:7 0.0001977541
13 gfpga_pad_GPIO_IE[5]:3 gfpga_pad_GPIO_A[5]:7 0.0001344544
14 gfpga_pad_GPIO_IE[5]:3 gfpga_pad_GPIO_A[5]:8 0.0002054173
15 gfpga_pad_GPIO_IE[5]:4 gfpga_pad_GPIO_A[5]:8 0.0001379547
16 gfpga_pad_GPIO_IE[5]:4 gfpga_pad_GPIO_A[5]:9 0.000209763
17 gfpga_pad_GPIO_IE[5]:5 gfpga_pad_GPIO_A[5]:9 0.0001396894
18 gfpga_pad_GPIO_IE[5]:5 gfpga_pad_GPIO_A[5]:10 0.0001038699
19 gfpga_pad_GPIO_IE[5]:7 gfpga_pad_GPIO_A[5]:11 1.228535e-06
20 gfpga_pad_GPIO_IE[5]:7 gfpga_pad_GPIO_A[5]:12 4.600199e-05
21 gfpga_pad_GPIO_IE[5]:6 gfpga_pad_GPIO_A[5]:10 7.041896e-05

*RES
0 grid_io_bottom_2__0_:gfpga_pad_GPIO_IE[0] gfpga_pad_GPIO_IE[5]:7 0.01291964
1 gfpga_pad_GPIO_IE[5]:2 gfpga_pad_GPIO_IE[5] 0.04464286
2 gfpga_pad_GPIO_IE[5]:3 gfpga_pad_GPIO_IE[5]:2 0.04464286
3 gfpga_pad_GPIO_IE[5]:4 gfpga_pad_GPIO_IE[5]:3 0.04464286
4 gfpga_pad_GPIO_IE[5]:5 gfpga_pad_GPIO_IE[5]:4 0.04464286
5 gfpga_pad_GPIO_IE[5]:7 gfpga_pad_GPIO_IE[5]:6 1e-05
6 gfpga_pad_GPIO_IE[5]:6 gfpga_pad_GPIO_IE[5]:5 0.01705714

*END

*D_NET gfpga_pad_GPIO_IE[6] 0.02091519 //LENGTH 232.975 LUMPCC 0.0006112648 DR

*CONN
*I grid_io_left_0__1_:gfpga_pad_GPIO_IE[0] O *L 0 *C 231.990 403.240
*P gfpga_pad_GPIO_IE[6] O *L 0 *C 0.460 403.920
*N gfpga_pad_GPIO_IE[6]:2 *C 0.460 403.920
*N gfpga_pad_GPIO_IE[6]:3 *C 0.468 403.920
*N gfpga_pad_GPIO_IE[6]:4 *C 50.295 403.920
*N gfpga_pad_GPIO_IE[6]:5 *C 100.295 403.920
*N gfpga_pad_GPIO_IE[6]:6 *C 150.295 403.920
*N gfpga_pad_GPIO_IE[6]:7 *C 200.295 403.920
*N gfpga_pad_GPIO_IE[6]:8 *C 219.519 403.920
*N gfpga_pad_GPIO_IE[6]:9 *C 219.520 403.920
*N gfpga_pad_GPIO_IE[6]:10 *C 226.400 403.920
*N gfpga_pad_GPIO_IE[6]:11 *C 226.400 403.240

*CAP
0 grid_io_left_0__1_:gfpga_pad_GPIO_IE[0] 0.0003664712
1 gfpga_pad_GPIO_IE[6] 1e-06
2 gfpga_pad_GPIO_IE[6]:2 2.862891e-05
3 gfpga_pad_GPIO_IE[6]:3 0.002513442
4 gfpga_pad_GPIO_IE[6]:4 0.004772632
5 gfpga_pad_GPIO_IE[6]:5 0.004204442
6 gfpga_pad_GPIO_IE[6]:6 0.003892276
7 gfpga_pad_GPIO_IE[6]:7 0.002690922
8 gfpga_pad_GPIO_IE[6]:8 0.000743899
9 gfpga_pad_GPIO_IE[6]:9 0.0003224631
10 gfpga_pad_GPIO_IE[6]:10 0.0003618688
11 gfpga_pad_GPIO_IE[6]:11 0.0004058769
12 grid_io_left_0__1_:gfpga_pad_GPIO_IE[0] grid_io_left_0__1_:gfpga_pad_GPIO_OE[0] 3.499413e-05
13 gfpga_pad_GPIO_IE[6]:3 gfpga_pad_GPIO_OE[6] 5.874723e-05
14 gfpga_pad_GPIO_IE[6]:10 gfpga_pad_GPIO_OE[6]:8 1.197189e-05
15 gfpga_pad_GPIO_IE[6]:11 gfpga_pad_GPIO_OE[6]:10 3.499413e-05
16 gfpga_pad_GPIO_IE[6]:4 gfpga_pad_GPIO_OE[6]:2 0.0001175307
17 gfpga_pad_GPIO_IE[6]:5 gfpga_pad_GPIO_OE[6]:3 0.0001175406
18 gfpga_pad_GPIO_IE[6]:6 gfpga_pad_GPIO_OE[6]:4 0.0001174904
19 gfpga_pad_GPIO_IE[6]:7 gfpga_pad_GPIO_OE[6]:5 8.237859e-05
20 gfpga_pad_GPIO_IE[6]:9 gfpga_pad_GPIO_OE[6]:7 1.197189e-05
21 gfpga_pad_GPIO_IE[6]:8 gfpga_pad_GPIO_OE[6]:6 2.364534e-05

*RES
0 grid_io_left_0__1_:gfpga_pad_GPIO_IE[0] gfpga_pad_GPIO_IE[6]:11 0.0008757666
1 gfpga_pad_GPIO_IE[6]:2 gfpga_pad_GPIO_IE[6] 0.0045
2 gfpga_pad_GPIO_IE[6]:3 gfpga_pad_GPIO_IE[6]:2 0.00341
3 gfpga_pad_GPIO_IE[6]:10 gfpga_pad_GPIO_IE[6]:9 0.001077867
4 gfpga_pad_GPIO_IE[6]:11 gfpga_pad_GPIO_IE[6]:10 0.0001065333
5 gfpga_pad_GPIO_IE[6]:4 gfpga_pad_GPIO_IE[6]:3 0.007806308
6 gfpga_pad_GPIO_IE[6]:5 gfpga_pad_GPIO_IE[6]:4 0.007833333
7 gfpga_pad_GPIO_IE[6]:6 gfpga_pad_GPIO_IE[6]:5 0.007833333
8 gfpga_pad_GPIO_IE[6]:7 gfpga_pad_GPIO_IE[6]:6 0.007833333
9 gfpga_pad_GPIO_IE[6]:9 gfpga_pad_GPIO_IE[6]:8 1e-05
10 gfpga_pad_GPIO_IE[6]:8 gfpga_pad_GPIO_IE[6]:7 0.00301176

*END

*D_NET gfpga_pad_GPIO_IE[7] 0.02261269 //LENGTH 233.155 LUMPCC 0 DR

*CONN
*I grid_io_left_0__2_:gfpga_pad_GPIO_IE[0] O *L 0 *C 231.990 599.080
*P gfpga_pad_GPIO_IE[7] O *L 0 *C 0.525 600.100
*N gfpga_pad_GPIO_IE[7]:2 *C 50.525 600.100
*N gfpga_pad_GPIO_IE[7]:3 *C 100.525 600.100
*N gfpga_pad_GPIO_IE[7]:4 *C 150.525 600.100
*N gfpga_pad_GPIO_IE[7]:5 *C 200.525 600.100
*N gfpga_pad_GPIO_IE[7]:6 *C 219.519 600.100
*N gfpga_pad_GPIO_IE[7]:7 *C 219.520 600.100
*N gfpga_pad_GPIO_IE[7]:8 *C 228.575 600.100
*N gfpga_pad_GPIO_IE[7]:9 *C 228.620 600.055
*N gfpga_pad_GPIO_IE[7]:10 *C 228.620 599.138
*N gfpga_pad_GPIO_IE[7]:11 *C 228.627 599.080

*CAP
0 grid_io_left_0__2_:gfpga_pad_GPIO_IE[0] 0.0002858806
1 gfpga_pad_GPIO_IE[7] 0.002415145
2 gfpga_pad_GPIO_IE[7]:2 0.004816999
3 gfpga_pad_GPIO_IE[7]:3 0.004796747
4 gfpga_pad_GPIO_IE[7]:4 0.004790762
5 gfpga_pad_GPIO_IE[7]:5 0.003300953
6 gfpga_pad_GPIO_IE[7]:6 0.000905084
7 gfpga_pad_GPIO_IE[7]:7 0.0004435901
8 gfpga_pad_GPIO_IE[7]:8 0.0004435901
9 gfpga_pad_GPIO_IE[7]:9 6.402969e-05
10 gfpga_pad_GPIO_IE[7]:10 6.402969e-05
11 gfpga_pad_GPIO_IE[7]:11 0.0002858806

*RES
0 grid_io_left_0__2_:gfpga_pad_GPIO_IE[0] gfpga_pad_GPIO_IE[7]:11 0.0005267916
1 gfpga_pad_GPIO_IE[7]:10 gfpga_pad_GPIO_IE[7]:9 0.0008191965
2 gfpga_pad_GPIO_IE[7]:11 gfpga_pad_GPIO_IE[7]:10 0.00341
3 gfpga_pad_GPIO_IE[7]:8 gfpga_pad_GPIO_IE[7]:7 0.008084822
4 gfpga_pad_GPIO_IE[7]:9 gfpga_pad_GPIO_IE[7]:8 0.0045
5 gfpga_pad_GPIO_IE[7]:2 gfpga_pad_GPIO_IE[7] 0.04464286
6 gfpga_pad_GPIO_IE[7]:3 gfpga_pad_GPIO_IE[7]:2 0.04464286
7 gfpga_pad_GPIO_IE[7]:4 gfpga_pad_GPIO_IE[7]:3 0.04464286
8 gfpga_pad_GPIO_IE[7]:5 gfpga_pad_GPIO_IE[7]:4 0.04464286
9 gfpga_pad_GPIO_IE[7]:7 gfpga_pad_GPIO_IE[7]:6 1e-05
10 gfpga_pad_GPIO_IE[7]:6 gfpga_pad_GPIO_IE[7]:5 0.01695893

*END

*D_NET gfpga_pad_GPIO_OE[0] 0.02067934 //LENGTH 239.015 LUMPCC 0 DR

*CONN
*I grid_io_top_1__3_:gfpga_pad_GPIO_OE[0] O *L 0 *C 385.480 756.090
*P gfpga_pad_GPIO_OE[0] O *L 0 *C 385.480 995.105
*N gfpga_pad_GPIO_OE[0]:2 *C 385.480 956.090
*N gfpga_pad_GPIO_OE[0]:3 *C 385.480 906.090
*N gfpga_pad_GPIO_OE[0]:4 *C 385.480 891.520
*N gfpga_pad_GPIO_OE[0]:5 *C 385.480 891.519
*N gfpga_pad_GPIO_OE[0]:6 *C 385.480 856.090
*N gfpga_pad_GPIO_OE[0]:7 *C 385.480 806.090

*CAP
0 grid_io_top_1__3_:gfpga_pad_GPIO_OE[0] 0.002181977
1 gfpga_pad_GPIO_OE[0] 0.001689007
2 gfpga_pad_GPIO_OE[0]:2 0.003851373
3 gfpga_pad_GPIO_OE[0]:3 0.002793396
4 gfpga_pad_GPIO_OE[0]:4 0.0006310306
5 gfpga_pad_GPIO_OE[0]:5 0.001520119
6 gfpga_pad_GPIO_OE[0]:6 0.003675289
7 gfpga_pad_GPIO_OE[0]:7 0.004337147

*RES
0 grid_io_top_1__3_:gfpga_pad_GPIO_OE[0] gfpga_pad_GPIO_OE[0]:7 0.04464286
1 gfpga_pad_GPIO_OE[0]:7 gfpga_pad_GPIO_OE[0]:6 0.04464287
2 gfpga_pad_GPIO_OE[0]:6 gfpga_pad_GPIO_OE[0]:5 0.03163304
3 gfpga_pad_GPIO_OE[0]:3 gfpga_pad_GPIO_OE[0]:2 0.04464286
4 gfpga_pad_GPIO_OE[0]:2 gfpga_pad_GPIO_OE[0] 0.03483482
5 gfpga_pad_GPIO_OE[0]:4 gfpga_pad_GPIO_OE[0]:3 0.01300893
6 gfpga_pad_GPIO_OE[0]:5 gfpga_pad_GPIO_OE[0]:4 1e-05

*END

*D_NET gfpga_pad_GPIO_OE[1] 0.02009339 //LENGTH 239.015 LUMPCC 0 DR

*CONN
*I grid_io_top_2__3_:gfpga_pad_GPIO_OE[0] O *L 0 *C 580.520 756.090
*P gfpga_pad_GPIO_OE[1] O *L 0 *C 580.520 995.105
*N gfpga_pad_GPIO_OE[1]:2 *C 580.520 956.090
*N gfpga_pad_GPIO_OE[1]:3 *C 580.520 906.090
*N gfpga_pad_GPIO_OE[1]:4 *C 580.520 891.520
*N gfpga_pad_GPIO_OE[1]:5 *C 580.520 891.519
*N gfpga_pad_GPIO_OE[1]:6 *C 580.520 856.090
*N gfpga_pad_GPIO_OE[1]:7 *C 580.520 806.090

*CAP
0 grid_io_top_2__3_:gfpga_pad_GPIO_OE[0] 0.002131593
1 gfpga_pad_GPIO_OE[1] 0.001639308
2 gfpga_pad_GPIO_OE[1]:2 0.003741376
3 gfpga_pad_GPIO_OE[1]:3 0.002714422
4 gfpga_pad_GPIO_OE[1]:4 0.0006123535
5 gfpga_pad_GPIO_OE[1]:5 0.001470756
6 gfpga_pad_GPIO_OE[1]:6 0.003561372
7 gfpga_pad_GPIO_OE[1]:7 0.004222209

*RES
0 grid_io_top_2__3_:gfpga_pad_GPIO_OE[0] gfpga_pad_GPIO_OE[1]:7 0.04464286
1 gfpga_pad_GPIO_OE[1]:7 gfpga_pad_GPIO_OE[1]:6 0.04464287
2 gfpga_pad_GPIO_OE[1]:6 gfpga_pad_GPIO_OE[1]:5 0.03163304
3 gfpga_pad_GPIO_OE[1]:3 gfpga_pad_GPIO_OE[1]:2 0.04464286
4 gfpga_pad_GPIO_OE[1]:2 gfpga_pad_GPIO_OE[1] 0.03483482
5 gfpga_pad_GPIO_OE[1]:4 gfpga_pad_GPIO_OE[1]:3 0.01300893
6 gfpga_pad_GPIO_OE[1]:5 gfpga_pad_GPIO_OE[1]:4 1e-05

*END

*D_NET gfpga_pad_GPIO_OE[2] 0.02778653 //LENGTH 248.350 LUMPCC 0 DR

*CONN
*I grid_io_right_3__1_:gfpga_pad_GPIO_OE[0] O *L 0 *C 750.570 378.760
*P gfpga_pad_GPIO_OE[2] O *L 0 *C 998.595 378.760
*N gfpga_pad_GPIO_OE[2]:2 *C 955.620 378.760
*N gfpga_pad_GPIO_OE[2]:3 *C 905.620 378.760
*N gfpga_pad_GPIO_OE[2]:4 *C 891.520 378.760
*N gfpga_pad_GPIO_OE[2]:5 *C 891.519 378.760
*N gfpga_pad_GPIO_OE[2]:6 *C 855.620 378.760
*N gfpga_pad_GPIO_OE[2]:7 *C 805.620 378.760
*N gfpga_pad_GPIO_OE[2]:8 *C 755.825 378.760
*N gfpga_pad_GPIO_OE[2]:9 *C 755.780 378.760
*N gfpga_pad_GPIO_OE[2]:10 *C 755.773 378.760

*CAP
0 grid_io_right_3__1_:gfpga_pad_GPIO_OE[0] 0.0003869474
1 gfpga_pad_GPIO_OE[2] 0.002400597
2 gfpga_pad_GPIO_OE[2]:2 0.005183264
3 gfpga_pad_GPIO_OE[2]:3 0.003556815
4 gfpga_pad_GPIO_OE[2]:4 0.0007741482
5 gfpga_pad_GPIO_OE[2]:5 0.001982984
6 gfpga_pad_GPIO_OE[2]:6 0.004758703
7 gfpga_pad_GPIO_OE[2]:7 0.005550564
8 gfpga_pad_GPIO_OE[2]:8 0.002774846
9 gfpga_pad_GPIO_OE[2]:9 3.071238e-05
10 gfpga_pad_GPIO_OE[2]:10 0.0003869474

*RES
0 grid_io_right_3__1_:gfpga_pad_GPIO_OE[0] gfpga_pad_GPIO_OE[2]:10 0.0008150583
1 gfpga_pad_GPIO_OE[2]:9 gfpga_pad_GPIO_OE[2]:8 0.0045
2 gfpga_pad_GPIO_OE[2]:10 gfpga_pad_GPIO_OE[2]:9 0.00341
3 gfpga_pad_GPIO_OE[2]:8 gfpga_pad_GPIO_OE[2]:7 0.04445983
4 gfpga_pad_GPIO_OE[2]:7 gfpga_pad_GPIO_OE[2]:6 0.04464286
5 gfpga_pad_GPIO_OE[2]:6 gfpga_pad_GPIO_OE[2]:5 0.03205268
6 gfpga_pad_GPIO_OE[2]:3 gfpga_pad_GPIO_OE[2]:2 0.04464286
7 gfpga_pad_GPIO_OE[2]:2 gfpga_pad_GPIO_OE[2] 0.03837054
8 gfpga_pad_GPIO_OE[2]:4 gfpga_pad_GPIO_OE[2]:3 0.01258929
9 gfpga_pad_GPIO_OE[2]:5 gfpga_pad_GPIO_OE[2]:4 1e-05

*END

*D_NET gfpga_pad_GPIO_OE[3] 0.02794794 //LENGTH 248.350 LUMPCC 0 DR

*CONN
*I grid_io_right_3__2_:gfpga_pad_GPIO_OE[0] O *L 0 *C 750.570 574.600
*P gfpga_pad_GPIO_OE[3] O *L 0 *C 998.595 574.600
*N gfpga_pad_GPIO_OE[3]:2 *C 955.620 574.600
*N gfpga_pad_GPIO_OE[3]:3 *C 905.620 574.600
*N gfpga_pad_GPIO_OE[3]:4 *C 891.520 574.600
*N gfpga_pad_GPIO_OE[3]:5 *C 891.519 574.600
*N gfpga_pad_GPIO_OE[3]:6 *C 855.620 574.600
*N gfpga_pad_GPIO_OE[3]:7 *C 805.620 574.600
*N gfpga_pad_GPIO_OE[3]:8 *C 755.825 574.600
*N gfpga_pad_GPIO_OE[3]:9 *C 755.780 574.600
*N gfpga_pad_GPIO_OE[3]:10 *C 755.773 574.600

*CAP
0 grid_io_right_3__2_:gfpga_pad_GPIO_OE[0] 0.0003744563
1 gfpga_pad_GPIO_OE[3] 0.002417461
2 gfpga_pad_GPIO_OE[3]:2 0.005219035
3 gfpga_pad_GPIO_OE[3]:3 0.0035813
4 gfpga_pad_GPIO_OE[3]:4 0.0007797261
5 gfpga_pad_GPIO_OE[3]:5 0.001996596
6 gfpga_pad_GPIO_OE[3]:6 0.00479136
7 gfpga_pad_GPIO_OE[3]:7 0.00558828
8 gfpga_pad_GPIO_OE[3]:8 0.002793516
9 gfpga_pad_GPIO_OE[3]:9 3.175425e-05
10 gfpga_pad_GPIO_OE[3]:10 0.0003744563

*RES
0 grid_io_right_3__2_:gfpga_pad_GPIO_OE[0] gfpga_pad_GPIO_OE[3]:10 0.0008150583
1 gfpga_pad_GPIO_OE[3]:9 gfpga_pad_GPIO_OE[3]:8 0.0045
2 gfpga_pad_GPIO_OE[3]:10 gfpga_pad_GPIO_OE[3]:9 0.00341
3 gfpga_pad_GPIO_OE[3]:8 gfpga_pad_GPIO_OE[3]:7 0.04445983
4 gfpga_pad_GPIO_OE[3]:7 gfpga_pad_GPIO_OE[3]:6 0.04464286
5 gfpga_pad_GPIO_OE[3]:6 gfpga_pad_GPIO_OE[3]:5 0.03205268
6 gfpga_pad_GPIO_OE[3]:3 gfpga_pad_GPIO_OE[3]:2 0.04464286
7 gfpga_pad_GPIO_OE[3]:2 gfpga_pad_GPIO_OE[3] 0.03837054
8 gfpga_pad_GPIO_OE[3]:4 gfpga_pad_GPIO_OE[3]:3 0.01258929
9 gfpga_pad_GPIO_OE[3]:5 gfpga_pad_GPIO_OE[3]:4 1e-05

*END

*D_NET gfpga_pad_GPIO_OE[4] 0.0202131 //LENGTH 233.575 LUMPCC 0 DR

*CONN
*I grid_io_bottom_1__0_:gfpga_pad_GPIO_OE[0] O *L 0 *C 386.400 233.990
*P gfpga_pad_GPIO_OE[4] O *L 0 *C 386.400 0.415
*N gfpga_pad_GPIO_OE[4]:2 *C 386.400 50.415
*N gfpga_pad_GPIO_OE[4]:3 *C 386.400 100.415
*N gfpga_pad_GPIO_OE[4]:4 *C 386.400 150.415
*N gfpga_pad_GPIO_OE[4]:5 *C 386.400 200.415
*N gfpga_pad_GPIO_OE[4]:6 *C 386.400 219.519
*N gfpga_pad_GPIO_OE[4]:7 *C 386.400 219.520

*CAP
0 grid_io_bottom_1__0_:gfpga_pad_GPIO_OE[0] 0.0006540128
1 gfpga_pad_GPIO_OE[4] 0.002170342
2 gfpga_pad_GPIO_OE[4]:2 0.004323256
3 gfpga_pad_GPIO_OE[4]:3 0.004310471
4 gfpga_pad_GPIO_OE[4]:4 0.004321598
5 gfpga_pad_GPIO_OE[4]:5 0.002971726
6 gfpga_pad_GPIO_OE[4]:6 0.0008076846
7 gfpga_pad_GPIO_OE[4]:7 0.0006540128

*RES
0 grid_io_bottom_1__0_:gfpga_pad_GPIO_OE[0] gfpga_pad_GPIO_OE[4]:7 0.01291964
1 gfpga_pad_GPIO_OE[4]:2 gfpga_pad_GPIO_OE[4] 0.04464286
2 gfpga_pad_GPIO_OE[4]:3 gfpga_pad_GPIO_OE[4]:2 0.04464286
3 gfpga_pad_GPIO_OE[4]:4 gfpga_pad_GPIO_OE[4]:3 0.04464286
4 gfpga_pad_GPIO_OE[4]:5 gfpga_pad_GPIO_OE[4]:4 0.04464286
5 gfpga_pad_GPIO_OE[4]:7 gfpga_pad_GPIO_OE[4]:6 1e-05
6 gfpga_pad_GPIO_OE[4]:6 gfpga_pad_GPIO_OE[4]:5 0.01705714

*END

*D_NET gfpga_pad_GPIO_OE[5] 0.01960804 //LENGTH 233.575 LUMPCC 0 DR

*CONN
*I grid_io_bottom_2__0_:gfpga_pad_GPIO_OE[0] O *L 0 *C 581.440 233.990
*P gfpga_pad_GPIO_OE[5] O *L 0 *C 581.440 0.415
*N gfpga_pad_GPIO_OE[5]:2 *C 581.440 50.415
*N gfpga_pad_GPIO_OE[5]:3 *C 581.440 100.415
*N gfpga_pad_GPIO_OE[5]:4 *C 581.440 150.415
*N gfpga_pad_GPIO_OE[5]:5 *C 581.440 200.415
*N gfpga_pad_GPIO_OE[5]:6 *C 581.440 219.519
*N gfpga_pad_GPIO_OE[5]:7 *C 581.440 219.520

*CAP
0 grid_io_bottom_2__0_:gfpga_pad_GPIO_OE[0] 0.0006342379
1 gfpga_pad_GPIO_OE[5] 0.002111361
2 gfpga_pad_GPIO_OE[5]:2 0.004198696
3 gfpga_pad_GPIO_OE[5]:3 0.004177491
4 gfpga_pad_GPIO_OE[5]:4 0.004187129
5 gfpga_pad_GPIO_OE[5]:5 0.00288093
6 gfpga_pad_GPIO_OE[5]:6 0.0007839578
7 gfpga_pad_GPIO_OE[5]:7 0.0006342379

*RES
0 grid_io_bottom_2__0_:gfpga_pad_GPIO_OE[0] gfpga_pad_GPIO_OE[5]:7 0.01291964
1 gfpga_pad_GPIO_OE[5]:2 gfpga_pad_GPIO_OE[5] 0.04464286
2 gfpga_pad_GPIO_OE[5]:3 gfpga_pad_GPIO_OE[5]:2 0.04464286
3 gfpga_pad_GPIO_OE[5]:4 gfpga_pad_GPIO_OE[5]:3 0.04464286
4 gfpga_pad_GPIO_OE[5]:5 gfpga_pad_GPIO_OE[5]:4 0.04464286
5 gfpga_pad_GPIO_OE[5]:7 gfpga_pad_GPIO_OE[5]:6 1e-05
6 gfpga_pad_GPIO_OE[5]:6 gfpga_pad_GPIO_OE[5]:5 0.01705714

*END

*D_NET gfpga_pad_GPIO_OE[6] 0.02584178 //LENGTH 231.790 LUMPCC 0.0006112648 DR

*CONN
*I grid_io_left_0__1_:gfpga_pad_GPIO_OE[0] O *L 0 *C 231.990 404.600
*P gfpga_pad_GPIO_OE[6] O *L 0 *C 0.525 404.600
*N gfpga_pad_GPIO_OE[6]:2 *C 50.525 404.600
*N gfpga_pad_GPIO_OE[6]:3 *C 100.525 404.600
*N gfpga_pad_GPIO_OE[6]:4 *C 150.525 404.600
*N gfpga_pad_GPIO_OE[6]:5 *C 200.525 404.600
*N gfpga_pad_GPIO_OE[6]:6 *C 219.519 404.600
*N gfpga_pad_GPIO_OE[6]:7 *C 219.520 404.600
*N gfpga_pad_GPIO_OE[6]:8 *C 230.415 404.600
*N gfpga_pad_GPIO_OE[6]:9 *C 230.460 404.600
*N gfpga_pad_GPIO_OE[6]:10 *C 230.468 404.600

*CAP
0 grid_io_left_0__1_:gfpga_pad_GPIO_OE[0] 0.0001099133
1 gfpga_pad_GPIO_OE[6] 0.002732523
2 gfpga_pad_GPIO_OE[6]:2 0.005441354
3 gfpga_pad_GPIO_OE[6]:3 0.005412554
4 gfpga_pad_GPIO_OE[6]:4 0.005408209
5 gfpga_pad_GPIO_OE[6]:5 0.00372557
6 gfpga_pad_GPIO_OE[6]:6 0.001021084
7 gfpga_pad_GPIO_OE[6]:7 0.0006187728
8 gfpga_pad_GPIO_OE[6]:8 0.0006187728
9 gfpga_pad_GPIO_OE[6]:9 3.18456e-05
10 gfpga_pad_GPIO_OE[6]:10 0.0001099133
11 grid_io_left_0__1_:gfpga_pad_GPIO_OE[0] grid_io_left_0__1_:gfpga_pad_GPIO_IE[0] 3.499413e-05
12 gfpga_pad_GPIO_OE[6] gfpga_pad_GPIO_IE[6]:3 5.874723e-05
13 gfpga_pad_GPIO_OE[6]:10 gfpga_pad_GPIO_IE[6]:11 3.499413e-05
14 gfpga_pad_GPIO_OE[6]:8 gfpga_pad_GPIO_IE[6]:10 1.197189e-05
15 gfpga_pad_GPIO_OE[6]:2 gfpga_pad_GPIO_IE[6]:4 0.0001175307
16 gfpga_pad_GPIO_OE[6]:3 gfpga_pad_GPIO_IE[6]:5 0.0001175406
17 gfpga_pad_GPIO_OE[6]:4 gfpga_pad_GPIO_IE[6]:6 0.0001174904
18 gfpga_pad_GPIO_OE[6]:5 gfpga_pad_GPIO_IE[6]:7 8.237859e-05
19 gfpga_pad_GPIO_OE[6]:7 gfpga_pad_GPIO_IE[6]:9 1.197189e-05
20 gfpga_pad_GPIO_OE[6]:6 gfpga_pad_GPIO_IE[6]:8 2.364534e-05

*RES
0 grid_io_left_0__1_:gfpga_pad_GPIO_OE[0] gfpga_pad_GPIO_OE[6]:10 0.000238525
1 gfpga_pad_GPIO_OE[6]:9 gfpga_pad_GPIO_OE[6]:8 0.0045
2 gfpga_pad_GPIO_OE[6]:10 gfpga_pad_GPIO_OE[6]:9 0.00341
3 gfpga_pad_GPIO_OE[6]:8 gfpga_pad_GPIO_OE[6]:7 0.009727679
4 gfpga_pad_GPIO_OE[6]:2 gfpga_pad_GPIO_OE[6] 0.04464286
5 gfpga_pad_GPIO_OE[6]:3 gfpga_pad_GPIO_OE[6]:2 0.04464286
6 gfpga_pad_GPIO_OE[6]:4 gfpga_pad_GPIO_OE[6]:3 0.04464286
7 gfpga_pad_GPIO_OE[6]:5 gfpga_pad_GPIO_OE[6]:4 0.04464286
8 gfpga_pad_GPIO_OE[6]:7 gfpga_pad_GPIO_OE[6]:6 1e-05
9 gfpga_pad_GPIO_OE[6]:6 gfpga_pad_GPIO_OE[6]:5 0.01695893

*END

*D_NET gfpga_pad_GPIO_OE[7] 0.02616807 //LENGTH 233.495 LUMPCC 0 DR

*CONN
*I grid_io_left_0__2_:gfpga_pad_GPIO_OE[0] O *L 0 *C 231.990 600.440
*P gfpga_pad_GPIO_OE[7] O *L 0 *C 0.525 601.800
*N gfpga_pad_GPIO_OE[7]:2 *C 50.525 601.800
*N gfpga_pad_GPIO_OE[7]:3 *C 100.525 601.800
*N gfpga_pad_GPIO_OE[7]:4 *C 150.525 601.800
*N gfpga_pad_GPIO_OE[7]:5 *C 200.525 601.800
*N gfpga_pad_GPIO_OE[7]:6 *C 219.519 601.800
*N gfpga_pad_GPIO_OE[7]:7 *C 219.520 601.800
*N gfpga_pad_GPIO_OE[7]:8 *C 225.815 601.800
*N gfpga_pad_GPIO_OE[7]:9 *C 225.860 601.755
*N gfpga_pad_GPIO_OE[7]:10 *C 225.860 600.498
*N gfpga_pad_GPIO_OE[7]:11 *C 225.868 600.440

*CAP
0 grid_io_left_0__2_:gfpga_pad_GPIO_OE[0] 0.0004056817
1 gfpga_pad_GPIO_OE[7] 0.002810137
2 gfpga_pad_GPIO_OE[7]:2 0.005607306
3 gfpga_pad_GPIO_OE[7]:3 0.005587674
4 gfpga_pad_GPIO_OE[7]:4 0.005582356
5 gfpga_pad_GPIO_OE[7]:5 0.003843848
6 gfpga_pad_GPIO_OE[7]:6 0.001051997
7 gfpga_pad_GPIO_OE[7]:7 0.000360812
8 gfpga_pad_GPIO_OE[7]:8 0.000360812
9 gfpga_pad_GPIO_OE[7]:9 7.588293e-05
10 gfpga_pad_GPIO_OE[7]:10 7.588293e-05
11 gfpga_pad_GPIO_OE[7]:11 0.0004056817

*RES
0 grid_io_left_0__2_:gfpga_pad_GPIO_OE[0] gfpga_pad_GPIO_OE[7]:11 0.0009591916
1 gfpga_pad_GPIO_OE[7]:10 gfpga_pad_GPIO_OE[7]:9 0.001122768
2 gfpga_pad_GPIO_OE[7]:11 gfpga_pad_GPIO_OE[7]:10 0.00341
3 gfpga_pad_GPIO_OE[7]:8 gfpga_pad_GPIO_OE[7]:7 0.005620536
4 gfpga_pad_GPIO_OE[7]:9 gfpga_pad_GPIO_OE[7]:8 0.0045
5 gfpga_pad_GPIO_OE[7]:2 gfpga_pad_GPIO_OE[7] 0.04464286
6 gfpga_pad_GPIO_OE[7]:3 gfpga_pad_GPIO_OE[7]:2 0.04464286
7 gfpga_pad_GPIO_OE[7]:4 gfpga_pad_GPIO_OE[7]:3 0.04464286
8 gfpga_pad_GPIO_OE[7]:5 gfpga_pad_GPIO_OE[7]:4 0.04464286
9 gfpga_pad_GPIO_OE[7]:7 gfpga_pad_GPIO_OE[7]:6 1e-05
10 gfpga_pad_GPIO_OE[7]:6 gfpga_pad_GPIO_OE[7]:5 0.01695893

*END

*D_NET gfpga_pad_GPIO_Y[0] 0.02004763 //LENGTH 239.015 LUMPCC 0 DR

*CONN
*P gfpga_pad_GPIO_Y[0] I *L 0 *C 372.140 995.105
*I grid_io_top_1__3_:gfpga_pad_GPIO_Y[0] I *L 0 *C 372.140 756.090
*N gfpga_pad_GPIO_Y[0]:2 *C 372.140 806.090
*N gfpga_pad_GPIO_Y[0]:3 *C 372.140 856.090
*N gfpga_pad_GPIO_Y[0]:4 *C 372.140 891.519
*N gfpga_pad_GPIO_Y[0]:5 *C 372.140 891.520
*N gfpga_pad_GPIO_Y[0]:6 *C 372.140 906.090
*N gfpga_pad_GPIO_Y[0]:7 *C 372.140 956.090

*CAP
0 gfpga_pad_GPIO_Y[0] 0.001639308
1 grid_io_top_1__3_:gfpga_pad_GPIO_Y[0] 0.002115869
2 gfpga_pad_GPIO_Y[0]:2 0.004206485
3 gfpga_pad_GPIO_Y[0]:3 0.003561372
4 gfpga_pad_GPIO_Y[0]:4 0.001470756
5 gfpga_pad_GPIO_Y[0]:5 0.0006123535
6 gfpga_pad_GPIO_Y[0]:6 0.002707268
7 gfpga_pad_GPIO_Y[0]:7 0.003734223

*RES
0 gfpga_pad_GPIO_Y[0] gfpga_pad_GPIO_Y[0]:7 0.03483482
1 gfpga_pad_GPIO_Y[0]:2 grid_io_top_1__3_:gfpga_pad_GPIO_Y[0] 0.04464286
2 gfpga_pad_GPIO_Y[0]:3 gfpga_pad_GPIO_Y[0]:2 0.04464287
3 gfpga_pad_GPIO_Y[0]:6 gfpga_pad_GPIO_Y[0]:5 0.01300893
4 gfpga_pad_GPIO_Y[0]:7 gfpga_pad_GPIO_Y[0]:6 0.04464286
5 gfpga_pad_GPIO_Y[0]:5 gfpga_pad_GPIO_Y[0]:4 1e-05
6 gfpga_pad_GPIO_Y[0]:4 gfpga_pad_GPIO_Y[0]:3 0.03163304

*END

*D_NET gfpga_pad_GPIO_Y[1] 0.02432458 //LENGTH 272.315 LUMPCC 0.002256461 DR

*CONN
*P gfpga_pad_GPIO_Y[1] I *L 0 *C 599.840 995.105
*I grid_io_top_2__3_:gfpga_pad_GPIO_Y[0] I *L 0 *C 567.180 756.090
*N gfpga_pad_GPIO_Y[1]:2 *C 567.180 806.090
*N gfpga_pad_GPIO_Y[1]:3 *C 567.180 856.090
*N gfpga_pad_GPIO_Y[1]:4 *C 567.180 891.519
*N gfpga_pad_GPIO_Y[1]:5 *C 567.180 891.520
*N gfpga_pad_GPIO_Y[1]:6 *C 567.180 906.090
*N gfpga_pad_GPIO_Y[1]:7 *C 567.180 947.535
*N gfpga_pad_GPIO_Y[1]:8 *C 567.225 947.580
*N gfpga_pad_GPIO_Y[1]:9 *C 599.795 947.580
*N gfpga_pad_GPIO_Y[1]:10 *C 599.840 947.625

*CAP
0 gfpga_pad_GPIO_Y[1] 0.001990635
1 grid_io_top_2__3_:gfpga_pad_GPIO_Y[0] 0.002069409
2 gfpga_pad_GPIO_Y[1]:2 0.003940474
3 gfpga_pad_GPIO_Y[1]:3 0.00318773
4 gfpga_pad_GPIO_Y[1]:4 0.001316665
5 gfpga_pad_GPIO_Y[1]:5 0.0005493377
6 gfpga_pad_GPIO_Y[1]:6 0.002142759
7 gfpga_pad_GPIO_Y[1]:7 0.001593421
8 gfpga_pad_GPIO_Y[1]:8 0.001643525
9 gfpga_pad_GPIO_Y[1]:9 0.001643525
10 gfpga_pad_GPIO_Y[1]:10 0.001990635
11 grid_io_top_2__3_:gfpga_pad_GPIO_Y[0] gfpga_pad_GPIO_A[1]:8 0.0001529969
12 gfpga_pad_GPIO_Y[1]:7 gfpga_pad_GPIO_A[1]:2 8.839471e-05
13 gfpga_pad_GPIO_Y[1]:7 gfpga_pad_GPIO_A[1]:3 0.0001847114
14 gfpga_pad_GPIO_Y[1]:2 gfpga_pad_GPIO_A[1]:7 0.0003078372
15 gfpga_pad_GPIO_Y[1]:2 gfpga_pad_GPIO_A[1]:8 0.0001963408
16 gfpga_pad_GPIO_Y[1]:3 gfpga_pad_GPIO_A[1]:6 0.0002094813
17 gfpga_pad_GPIO_Y[1]:3 gfpga_pad_GPIO_A[1]:7 0.0003919032
18 gfpga_pad_GPIO_Y[1]:6 gfpga_pad_GPIO_A[1]:3 0.0001891379
19 gfpga_pad_GPIO_Y[1]:6 gfpga_pad_GPIO_A[1]:4 0.0001847114
20 gfpga_pad_GPIO_Y[1]:5 gfpga_pad_GPIO_A[1]:4 0.0001007432
21 gfpga_pad_GPIO_Y[1]:4 gfpga_pad_GPIO_A[1]:5 5.464099e-05
22 gfpga_pad_GPIO_Y[1]:4 gfpga_pad_GPIO_A[1]:6 0.0001955624

*RES
0 gfpga_pad_GPIO_Y[1] gfpga_pad_GPIO_Y[1]:10 0.04239286
1 gfpga_pad_GPIO_Y[1]:8 gfpga_pad_GPIO_Y[1]:7 0.0045
2 gfpga_pad_GPIO_Y[1]:7 gfpga_pad_GPIO_Y[1]:6 0.03700447
3 gfpga_pad_GPIO_Y[1]:9 gfpga_pad_GPIO_Y[1]:8 0.02908036
4 gfpga_pad_GPIO_Y[1]:10 gfpga_pad_GPIO_Y[1]:9 0.0045
5 gfpga_pad_GPIO_Y[1]:2 grid_io_top_2__3_:gfpga_pad_GPIO_Y[0] 0.04464286
6 gfpga_pad_GPIO_Y[1]:3 gfpga_pad_GPIO_Y[1]:2 0.04464287
7 gfpga_pad_GPIO_Y[1]:6 gfpga_pad_GPIO_Y[1]:5 0.01300893
8 gfpga_pad_GPIO_Y[1]:5 gfpga_pad_GPIO_Y[1]:4 1e-05
9 gfpga_pad_GPIO_Y[1]:4 gfpga_pad_GPIO_Y[1]:3 0.03163304

*END

*D_NET gfpga_pad_GPIO_Y[2] 0.02307717 //LENGTH 248.350 LUMPCC 0 DR

*CONN
*P gfpga_pad_GPIO_Y[2] I *L 0 *C 998.595 423.640
*I grid_io_right_3__1_:gfpga_pad_GPIO_Y[0] I *L 0 *C 750.570 423.640
*N gfpga_pad_GPIO_Y[2]:2 *C 800.570 423.640
*N gfpga_pad_GPIO_Y[2]:3 *C 850.570 423.640
*N gfpga_pad_GPIO_Y[2]:4 *C 891.519 423.640