*SPEF "1481-1998"
*DESIGN "fpga_core"
*DATE "Mon Oct 26 23:01:55 2020"
*
*
*
*
*DIVIDER /
*DELIMITER :
*T_UNIT 1 NS
*C_UNIT 1 PF
*R_UNIT 1 KOHM
*L_UNIT 1 HENRY

// XY_UNIT 1 UM
// PARASITIC_TECH nominal at 25.000 degree

*PORTS
prog_clk[0] I *C 0.297 591.600
Test_en[0] I *C 1199.383 601.800
clk[0] I *C 1199.383 602.480
gfpga_pad_GPIO_A[0] O *C 506.460 1196.558
gfpga_pad_GPIO_A[1] O *C 694.140 1196.558
gfpga_pad_GPIO_A[2] O *C 1199.383 463.080
gfpga_pad_GPIO_A[3] O *C 1199.383 756.840
gfpga_pad_GPIO_A[4] O *C 470.120 0.243
gfpga_pad_GPIO_A[5] O *C 701.500 0.243
gfpga_pad_GPIO_A[6] O *C 0.297 475.320
gfpga_pad_GPIO_A[7] O *C 0.297 725.220
gfpga_pad_GPIO_IE[0] O *C 465.520 1196.558
gfpga_pad_GPIO_IE[1] O *C 726.800 1196.558
gfpga_pad_GPIO_IE[2] O *C 1199.383 460.360
gfpga_pad_GPIO_IE[3] O *C 1199.383 721.480
gfpga_pad_GPIO_IE[4] O *C 459.080 0.243
gfpga_pad_GPIO_IE[5] O *C 720.360 0.243
gfpga_pad_GPIO_IE[6] O *C 0.297 458.660
gfpga_pad_GPIO_IE[7] O *C 0.297 719.780
gfpga_pad_GPIO_OE[0] O *C 450.340 1196.558
gfpga_pad_GPIO_OE[1] O *C 711.620 1196.558
gfpga_pad_GPIO_OE[2] O *C 1199.383 450.160
gfpga_pad_GPIO_OE[3] O *C 1199.383 711.280
gfpga_pad_GPIO_OE[4] O *C 445.740 0.243
gfpga_pad_GPIO_OE[5] O *C 707.020 0.243
gfpga_pad_GPIO_OE[6] O *C 0.297 433.840
gfpga_pad_GPIO_OE[7] O *C 0.297 694.960
gfpga_pad_GPIO_Y[0] I *C 430.560 1196.558
gfpga_pad_GPIO_Y[1] I *C 736.000 1196.558
gfpga_pad_GPIO_Y[2] I *C 1199.383 499.800
gfpga_pad_GPIO_Y[3] I *C 1199.383 708.220
gfpga_pad_GPIO_Y[4] I *C 418.140 0.243
gfpga_pad_GPIO_Y[5] I *C 675.280 0.243
gfpga_pad_GPIO_Y[6] I *C 0.297 457.640
gfpga_pad_GPIO_Y[7] I *C 0.297 680.680
ccff_head[0] I *C 799.940 1196.558
ccff_tail[0] O *C 0.297 362.440
VDD I *C 599.840 598.400
VSS I *C 599.840 598.400

*D_NET Test_en[0] 0.1399642 //LENGTH 1392.735 LUMPCC 0.01206547 DR

*CONN
*P Test_en[0] I *L 0 *C 1199.155 601.800
*I grid_clb_2__1_:Test_en[0] I *L 0 *C 802.090 520.880
*I BUFT_P_9:A I *L 0.001746 *C 554.300 523.600
*I grid_clb_2__2_:Test_en[0] I *L 0 *C 802.090 782.000
*I grid_clb_1__2_:Test_en[0] I *L 0 *C 540.810 782.000
*N Test_en[0]:5 *C 541.413 782.000
*N Test_en[0]:6 *C 541.420 782.058
*N Test_en[0]:7 *C 541.420 786.023
*N Test_en[0]:8 *C 541.428 786.080
*N Test_en[0]:9 *C 591.255 786.080
*N Test_en[0]:10 *C 633.860 786.080
*N Test_en[0]:11 *C 633.880 786.088
*N Test_en[0]:12 *C 633.880 810.553
*N Test_en[0]:13 *C 633.900 810.560
*N Test_en[0]:14 *C 667.519 810.560
*N Test_en[0]:15 *C 667.520 810.560
*N Test_en[0]:16 *C 683.690 810.560
*N Test_en[0]:17 *C 733.690 810.560
*N Test_en[0]:18 *C 783.690 810.560
*N Test_en[0]:19 *C 804.060 810.560
*N Test_en[0]:20 *C 804.080 810.553
*N Test_en[0]:21 *C 804.060 782.000
*N Test_en[0]:22 *C 804.080 782.000
*N Test_en[0]:23 *C 804.080 779.288
*N Test_en[0]:24 *C 804.100 779.280
*N Test_en[0]:25 *C 853.890 779.280
*N Test_en[0]:26 *C 891.519 779.280
*N Test_en[0]:27 *C 891.520 779.280
*N Test_en[0]:28 *C 903.420 779.280
*N Test_en[0]:29 *C 903.440 779.273
*N Test_en[0]:30 *C 903.440 752.995
*N Test_en[0]:31 *C 903.440 702.995
*N Test_en[0]:32 *C 903.440 667.520
*N Test_en[0]:33 *C 903.440 667.519
*N Test_en[0]:34 *C 903.440 652.995
*N Test_en[0]:35 *C 903.440 603.168
*N Test_en[0]:36 *C 903.460 603.160
*N Test_en[0]:37 *C 917.220 603.160
*N Test_en[0]:38 *C 917.240 603.153
*N Test_en[0]:39 *C 554.300 523.615
*N Test_en[0]:40 *C 554.300 523.940
*N Test_en[0]:41 *C 554.300 523.985
*N Test_en[0]:42 *C 554.300 525.935
*N Test_en[0]:43 *C 554.345 525.980
*N Test_en[0]:44 *C 604.140 525.980
*N Test_en[0]:45 *C 634.755 525.980
*N Test_en[0]:46 *C 634.800 526.025
*N Test_en[0]:47 *C 634.800 545.655
*N Test_en[0]:48 *C 634.845 545.700
*N Test_en[0]:49 *C 667.519 545.700
*N Test_en[0]:50 *C 667.520 545.700
*N Test_en[0]:51 *C 684.640 545.700
*N Test_en[0]:52 *C 734.640 545.700
*N Test_en[0]:53 *C 784.640 545.700
*N Test_en[0]:54 *C 803.115 545.700
*N Test_en[0]:55 *C 803.160 545.655
*N Test_en[0]:56 *C 803.160 526.378
*N Test_en[0]:57 *C 803.168 526.320
*N Test_en[0]:58 *C 804.980 520.880
*N Test_en[0]:59 *C 805.000 520.888
*N Test_en[0]:60 *C 805.000 526.312
*N Test_en[0]:61 *C 805.000 526.320
*N Test_en[0]:62 *C 855.000 526.320
*N Test_en[0]:63 *C 891.519 526.320
*N Test_en[0]:64 *C 891.520 526.320
*N Test_en[0]:65 *C 905.000 526.320
*N Test_en[0]:66 *C 917.220 526.320
*N Test_en[0]:67 *C 917.240 526.327
*N Test_en[0]:68 *C 917.240 576.155
*N Test_en[0]:69 *C 917.240 601.800
*N Test_en[0]:70 *C 917.260 601.800
*N Test_en[0]:71 *C 967.050 601.800
*N Test_en[0]:72 *C 1017.050 601.800
*N Test_en[0]:73 *C 1067.050 601.800
*N Test_en[0]:74 *C 1115.519 601.800
*N Test_en[0]:75 *C 1115.520 601.800
*N Test_en[0]:76 *C 1117.050 601.800
*N Test_en[0]:77 *C 1167.050 601.800
*N Test_en[0]:78 *C 1198.753 601.800
*N Test_en[0]:79 *C 1198.760 601.800
*N Test_en[0]:80 *C 1198.805 601.800

*CAP
0 Test_en[0] 2.888966e-05
1 grid_clb_2__1_:Test_en[0] 0.0001852348
2 BUFT_P_9:A 1e-06
3 grid_clb_2__2_:Test_en[0] 0.0001076267
4 grid_clb_1__2_:Test_en[0] 0.0001121013
5 Test_en[0]:5 0.0001121013
6 Test_en[0]:6 0.0002565065
7 Test_en[0]:7 0.0002565065
8 Test_en[0]:8 0.002223193
9 Test_en[0]:9 0.004073875
10 Test_en[0]:10 0.001850683
11 Test_en[0]:11 0.001255824
12 Test_en[0]:12 0.001255824
13 Test_en[0]:13 0.001285395
14 Test_en[0]:14 0.001285395
15 Test_en[0]:15 0.0004979158
16 Test_en[0]:16 0.001971785
17 Test_en[0]:17 0.002999675
18 Test_en[0]:18 0.002343946
19 Test_en[0]:19 0.0008181387
20 Test_en[0]:20 0.001339421
21 Test_en[0]:21 0.0001076267
22 Test_en[0]:22 0.001493745
23 Test_en[0]:23 0.0001543235
24 Test_en[0]:24 0.002984205
25 Test_en[0]:25 0.005374456
26 Test_en[0]:26 0.00239025
27 Test_en[0]:27 0.0004673245
28 Test_en[0]:28 0.0004673245
29 Test_en[0]:29 0.001075826
30 Test_en[0]:30 0.003031488
31 Test_en[0]:31 0.003322075
32 Test_en[0]:32 0.001366413
33 Test_en[0]:33 0.000664668
34 Test_en[0]:34 0.002495839
35 Test_en[0]:35 0.001831171
36 Test_en[0]:36 0.0006365847
37 Test_en[0]:37 0.0006365847
38 Test_en[0]:38 6.989982e-05
39 Test_en[0]:39 3.048138e-05
40 Test_en[0]:40 5.823372e-05
41 Test_en[0]:41 0.0001167858
42 Test_en[0]:42 0.0001167858
43 Test_en[0]:43 0.00279753
44 Test_en[0]:44 0.004451192
45 Test_en[0]:45 0.001653662
46 Test_en[0]:46 0.0009430735
47 Test_en[0]:47 0.0009430735
48 Test_en[0]:48 0.001889392
49 Test_en[0]:49 0.001889392
50 Test_en[0]:50 0.0009605181
51 Test_en[0]:51 0.003770723
52 Test_en[0]:52 0.005624368
53 Test_en[0]:53 0.003854699
54 Test_en[0]:54 0.001040536
55 Test_en[0]:55 0.0008900589
56 Test_en[0]:56 0.0008900589
57 Test_en[0]:57 8.121394e-05
58 Test_en[0]:58 0.0001852348
59 Test_en[0]:59 0.000270995
60 Test_en[0]:60 0.000270995
61 Test_en[0]:61 0.003164388
62 Test_en[0]:62 0.005402716
63 Test_en[0]:63 0.002319543
64 Test_en[0]:64 0.0006148934
65 Test_en[0]:65 0.001150561
66 Test_en[0]:66 0.0005356673
67 Test_en[0]:67 0.001839599
68 Test_en[0]:68 0.002792177
69 Test_en[0]:69 0.001022478
70 Test_en[0]:70 0.002097075
71 Test_en[0]:71 0.00418153
72 Test_en[0]:72 0.00416609
73 Test_en[0]:73 0.004100516
74 Test_en[0]:74 0.002018881
75 Test_en[0]:75 6.40434e-05
76 Test_en[0]:76 0.002143594
77 Test_en[0]:77 0.003371185
78 Test_en[0]:78 0.001291634
79 Test_en[0]:79 3.332888e-05
80 Test_en[0]:80 2.888966e-05
81 Test_en[0] clk[0] 1.232618e-05
82 grid_clb_1__2_:Test_en[0] grid_clb_1__2_:clk[0] 4.768238e-06
83 grid_clb_2__2_:Test_en[0] grid_clb_2__2_:clk[0] 5.069699e-05
84 Test_en[0]:78 clk[0]:84 9.815069e-05
85 Test_en[0]:80 clk[0]:87 1.232618e-05
86 Test_en[0]:28 clk[0]:8 0.0002519766
87 Test_en[0]:28 clk[0]:9 3.704762e-05
88 Test_en[0]:24 grid_clb_2__2_:clk[0] 0.0008642827
89 Test_en[0]:24 clk[0]:5 2.91031e-05
90 Test_en[0]:8 grid_clb_1__2_:clk[0] 6.999164e-07
91 Test_en[0]:5 clk[0]:22 4.768238e-06
92 Test_en[0]:21 clk[0]:5 5.069699e-05
93 Test_en[0]:47 clk[0]:40 1.189506e-06
94 Test_en[0]:46 clk[0]:39 1.189506e-06
95 Test_en[0]:9 clk[0]:22 6.999164e-07
96 Test_en[0]:25 clk[0]:5 0.001494469
97 Test_en[0]:25 clk[0]:6 2.91031e-05
98 Test_en[0]:77 clk[0]:85 9.815069e-05
99 Test_en[0]:27 clk[0]:8 3.704762e-05
100 Test_en[0]:27 clk[0]:7 0.0002519766
101 Test_en[0]:26 clk[0]:6 0.0006301859
102 Test_en[0]:13 cbx_1__2__1_chanx_left_out[14]:5 2.739735e-05
103 Test_en[0]:16 cbx_1__2__1_chanx_left_out[14]:8 5.255961e-05
104 Test_en[0]:15 cbx_1__2__1_chanx_left_out[14]:7 5.255961e-05
105 Test_en[0]:14 cbx_1__2__1_chanx_left_out[14]:6 2.739735e-05
106 Test_en[0]:13 direct_interc_2_out[0]:9 0.0003902735
107 Test_en[0]:12 direct_interc_2_out[0]:10 0.0001525327
108 Test_en[0]:11 direct_interc_2_out[0]:11 0.0001525327
109 Test_en[0]:47 direct_interc_2_out[0]:26 3.105926e-05
110 Test_en[0]:46 direct_interc_2_out[0]:27 3.105926e-05
111 Test_en[0]:16 direct_interc_2_out[0]:6 0.0007894946
112 Test_en[0]:16 direct_interc_2_out[0]:7 5.820147e-05
113 Test_en[0]:17 direct_interc_2_out[0]:6 0.0001220297
114 Test_en[0]:17 direct_interc_2_out[0]:5 0.001074846
115 Test_en[0]:18 direct_interc_2_out[0]:4 0.000488191
116 Test_en[0]:18 direct_interc_2_out[0]:5 6.38282e-05
117 Test_en[0]:15 direct_interc_2_out[0]:7 0.0002028396
118 Test_en[0]:14 direct_interc_2_out[0]:8 0.0003902735
119 Test_en[0]:56 grid_clb_2_right_width_0_height_0__pin_41_upper[0]:4 2.577347e-05
120 Test_en[0]:57 grid_clb_2__1_:right_width_0_height_0__pin_41_upper[0] 1.831939e-05
121 Test_en[0]:55 grid_clb_2_right_width_0_height_0__pin_41_upper[0]:3 2.577347e-05
122 Test_en[0]:61 grid_clb_2__1_:right_width_0_height_0__pin_41_upper[0] 1.348515e-05
123 Test_en[0]:61 grid_clb_2_right_width_0_height_0__pin_41_upper[0]:5 1.831939e-05
124 Test_en[0]:62 grid_clb_2_right_width_0_height_0__pin_41_upper[0]:5 1.348515e-05
125 Test_en[0]:20 grid_clb_3_right_width_0_height_0__pin_41_upper[0]:3 0.000175375
126 Test_en[0]:22 grid_clb_3_right_width_0_height_0__pin_41_upper[0]:4 0.000175375
127 Test_en[0]:19 ctsbuf_net_312:11 0.0001572697
128 Test_en[0]:20 ctsbuf_net_312:9 1.335429e-05
129 Test_en[0]:20 ctsbuf_net_312:10 2.782057e-05
130 Test_en[0]:13 ctsbuf_net_312:19 1.481498e-05
131 Test_en[0]:22 ctsbuf_net_312:5 1.335429e-05
132 Test_en[0]:22 ctsbuf_net_312:9 2.782057e-05
133 Test_en[0]:16 ctsbuf_net_312:14 0.0002975839
134 Test_en[0]:16 ctsbuf_net_312:13 0.0001698855
135 Test_en[0]:17 ctsbuf_net_312:13 0.0005959724
136 Test_en[0]:17 ctsbuf_net_312:12 0.0001803342
137 Test_en[0]:18 ctsbuf_net_312:11 9.138983e-05
138 Test_en[0]:18 ctsbuf_net_312:12 0.0004556583
139 Test_en[0]:15 ctsbuf_net_312:14 8.094108e-05
140 Test_en[0]:14 ctsbuf_net_312:18 1.481498e-05
141 Test_en[0]:10 ctsbuf_net_2130:24 2.493984e-05
142 Test_en[0]:10 ctsbuf_net_2130:25 0.0002743822
143 Test_en[0]:10 ctsbuf_net_2130:26 8.925112e-06
144 Test_en[0]:8 ctsbuf_net_2130:27 0.0003870621
145 Test_en[0]:9 ctsbuf_net_2130:27 8.925112e-06
146 Test_en[0]:9 ctsbuf_net_2130:25 2.493984e-05
147 Test_en[0]:9 ctsbuf_net_2130:26 0.0006614443

*RES
0 Test_en[0] Test_en[0]:80 0.0003125
1 Test_en[0]:70 Test_en[0]:69 0.00341
2 Test_en[0]:69 Test_en[0]:68 0.004017716
3 Test_en[0]:69 Test_en[0]:38 0.0002118916
4 Test_en[0]:79 Test_en[0]:78 0.00341
5 Test_en[0]:78 Test_en[0]:77 0.004966725
6 Test_en[0]:80 Test_en[0]:79 0.0045
7 Test_en[0]:66 Test_en[0]:65 0.001914467
8 Test_en[0]:67 Test_en[0]:66 0.00341
9 Test_en[0]:37 Test_en[0]:36 0.002155733
10 Test_en[0]:38 Test_en[0]:37 0.00341
11 Test_en[0]:36 Test_en[0]:35 0.00341
12 Test_en[0]:35 Test_en[0]:34 0.007806308
13 Test_en[0]:28 Test_en[0]:27 0.001864333
14 Test_en[0]:29 Test_en[0]:28 0.00341
15 Test_en[0]:24 Test_en[0]:23 0.00341
16 Test_en[0]:23 Test_en[0]:22 0.0004249583
17 Test_en[0]:19 Test_en[0]:18 0.0031913
18 Test_en[0]:20 Test_en[0]:19 0.00341
19 Test_en[0]:13 Test_en[0]:12 0.00341
20 Test_en[0]:12 Test_en[0]:11 0.00383285
21 Test_en[0]:10 Test_en[0]:9 0.006674783
22 Test_en[0]:11 Test_en[0]:10 0.00341
23 Test_en[0]:7 Test_en[0]:6 0.003540179
24 Test_en[0]:8 Test_en[0]:7 0.00341
25 Test_en[0]:6 Test_en[0]:5 0.00341
26 Test_en[0]:5 grid_clb_1__2_:Test_en[0] 9.439165e-05
27 Test_en[0]:21 grid_clb_2__2_:Test_en[0] 0.0003086333
28 Test_en[0]:22 Test_en[0]:21 0.00341
29 Test_en[0]:22 Test_en[0]:20 0.004473225
30 Test_en[0]:56 Test_en[0]:55 0.01721206
31 Test_en[0]:57 Test_en[0]:56 0.00341
32 Test_en[0]:54 Test_en[0]:53 0.01649554
33 Test_en[0]:55 Test_en[0]:54 0.0045
34 Test_en[0]:48 Test_en[0]:47 0.0045
35 Test_en[0]:47 Test_en[0]:46 0.01752679
36 Test_en[0]:45 Test_en[0]:44 0.02733482
37 Test_en[0]:46 Test_en[0]:45 0.0045
38 Test_en[0]:43 Test_en[0]:42 0.0045
39 Test_en[0]:42 Test_en[0]:41 0.001741071
40 Test_en[0]:40 Test_en[0]:39 0.0001766304
41 Test_en[0]:41 Test_en[0]:40 0.0045
42 Test_en[0]:39 BUFT_P_9:A 0.152
43 Test_en[0]:61 Test_en[0]:60 0.00341
44 Test_en[0]:61 Test_en[0]:57 0.0002870917
45 Test_en[0]:60 Test_en[0]:59 0.0008499166
46 Test_en[0]:58 grid_clb_2__1_:Test_en[0] 0.0004527666
47 Test_en[0]:59 Test_en[0]:58 0.00341
48 Test_en[0]:44 Test_en[0]:43 0.04445983
49 Test_en[0]:51 Test_en[0]:50 0.01528571
50 Test_en[0]:52 Test_en[0]:51 0.04464286
51 Test_en[0]:53 Test_en[0]:52 0.04464286
52 Test_en[0]:9 Test_en[0]:8 0.007806308
53 Test_en[0]:16 Test_en[0]:15 0.0025333
54 Test_en[0]:17 Test_en[0]:16 0.007833333
55 Test_en[0]:18 Test_en[0]:17 0.007833333
56 Test_en[0]:62 Test_en[0]:61 0.007833333
57 Test_en[0]:65 Test_en[0]:64 0.002111867
58 Test_en[0]:25 Test_en[0]:24 0.007800432
59 Test_en[0]:71 Test_en[0]:70 0.007800433
60 Test_en[0]:72 Test_en[0]:71 0.007833333
61 Test_en[0]:73 Test_en[0]:72 0.007833333
62 Test_en[0]:76 Test_en[0]:75 0.0002397
63 Test_en[0]:77 Test_en[0]:76 0.007833333
64 Test_en[0]:34 Test_en[0]:33 0.002275426
65 Test_en[0]:31 Test_en[0]:30 0.007833333
66 Test_en[0]:30 Test_en[0]:29 0.004116808
67 Test_en[0]:68 Test_en[0]:67 0.007806308
68 Test_en[0]:27 Test_en[0]:26 1e-05
69 Test_en[0]:26 Test_en[0]:25 0.005895209
70 Test_en[0]:50 Test_en[0]:49 1e-05
71 Test_en[0]:49 Test_en[0]:48 0.02917322
72 Test_en[0]:15 Test_en[0]:14 1e-05
73 Test_en[0]:14 Test_en[0]:13 0.005266977
74 Test_en[0]:64 Test_en[0]:63 1e-05
75 Test_en[0]:63 Test_en[0]:62 0.00572131
76 Test_en[0]:75 Test_en[0]:74 1e-05
77 Test_en[0]:74 Test_en[0]:73 0.007593476
78 Test_en[0]:32 Test_en[0]:31 0.00555775
79 Test_en[0]:33 Test_en[0]:32 1e-05

*END

*D_NET cbx_1__1__1_chanx_left_out[5] 0.001566639 //LENGTH 7.660 LUMPCC 0.0004235531 DR

*CONN
*I cbx_2__1_:chanx_left_out[5] O *L 0 *C 668.990 622.880
*I sb_1__1_:chanx_right_in[5] I *L 0 *C 661.330 622.880
*N cbx_1__1__1_chanx_left_out[5]:2 *C 667.519 622.880
*N cbx_1__1__1_chanx_left_out[5]:3 *C 667.520 622.880

*CAP
0 cbx_2__1_:chanx_left_out[5] 0.0002209402
1 sb_1__1_:chanx_right_in[5] 0.0003506028
2 cbx_1__1__1_chanx_left_out[5]:2 0.0003506028
3 cbx_1__1__1_chanx_left_out[5]:3 0.0002209402
4 sb_1__1_:chanx_right_in[5] sb_1__1_:chanx_right_in[4] 0.0001070368
5 cbx_1__1__1_chanx_left_out[5]:2 cbx_1__1__1_chanx_left_out[4]:2 0.0001070368
6 sb_1__1_:chanx_right_in[5] sb_1__1_:chanx_right_in[12] 0.0001047398
7 cbx_1__1__1_chanx_left_out[5]:2 cbx_1__1__1_chanx_left_out[12]:2 0.0001047398

*RES
0 cbx_2__1_:chanx_left_out[5] cbx_1__1__1_chanx_left_out[5]:3 0.0002303
1 cbx_1__1__1_chanx_left_out[5]:3 cbx_1__1__1_chanx_left_out[5]:2 1e-05
2 cbx_1__1__1_chanx_left_out[5]:2 sb_1__1_:chanx_right_in[5] 0.0009696099

*END

*D_NET cbx_1__1__1_chanx_left_out[9] 0.001429521 //LENGTH 7.660 LUMPCC 0.0003216677 DR

*CONN
*I cbx_2__1_:chanx_left_out[9] O *L 0 *C 668.990 578.680
*I sb_1__1_:chanx_right_in[9] I *L 0 *C 661.330 578.680
*N cbx_1__1__1_chanx_left_out[9]:2 *C 667.519 578.680
*N cbx_1__1__1_chanx_left_out[9]:3 *C 667.520 578.680

*CAP
0 cbx_2__1_:chanx_left_out[9] 0.0002071506
1 sb_1__1_:chanx_right_in[9] 0.0003467757
2 cbx_1__1__1_chanx_left_out[9]:2 0.0003467757
3 cbx_1__1__1_chanx_left_out[9]:3 0.0002071506
4 sb_1__1_:chanx_right_in[9] sb_1__1_:chanx_right_in[0] 2.790978e-05
5 cbx_1__1__1_chanx_left_out[9]:2 cbx_1__1__1_chanx_left_out[0]:2 2.790978e-05
6 sb_1__1_:chanx_right_in[9] sb_1__1_:chanx_right_out[14] 2.163164e-05
7 cbx_1__1__1_chanx_left_out[9]:2 sb_1__1__0_chanx_right_out[14]:3 2.163164e-05
8 sb_1__1_:chanx_right_in[9] sb_1__1_:chanx_right_out[18] 0.0001112924
9 cbx_1__1__1_chanx_left_out[9]:2 sb_1__1__0_chanx_right_out[18]:3 0.0001112924

*RES
0 cbx_2__1_:chanx_left_out[9] cbx_1__1__1_chanx_left_out[9]:3 0.0002303
1 cbx_1__1__1_chanx_left_out[9]:3 cbx_1__1__1_chanx_left_out[9]:2 1e-05
2 cbx_1__1__1_chanx_left_out[9]:2 sb_1__1_:chanx_right_in[9] 0.0009696101

*END

*D_NET cbx_1__1__1_chanx_left_out[12] 0.001508248 //LENGTH 7.660 LUMPCC 0.0003064614 DR

*CONN
*I cbx_2__1_:chanx_left_out[12] O *L 0 *C 668.990 624.240
*I sb_1__1_:chanx_right_in[12] I *L 0 *C 661.330 624.240
*N cbx_1__1__1_chanx_left_out[12]:2 *C 667.519 624.240
*N cbx_1__1__1_chanx_left_out[12]:3 *C 667.520 624.240

*CAP
0 cbx_2__1_:chanx_left_out[12] 0.0002216876
1 sb_1__1_:chanx_right_in[12] 0.0003792058
2 cbx_1__1__1_chanx_left_out[12]:2 0.0003792058
3 cbx_1__1__1_chanx_left_out[12]:3 0.0002216876
4 sb_1__1_:chanx_right_in[12] sb_1__1_:chanx_right_in[1] 4.849091e-05
5 cbx_1__1__1_chanx_left_out[12]:2 cbx_1__1__1_chanx_left_out[1]:2 4.849091e-05
6 sb_1__1_:chanx_right_in[12] sb_1__1_:chanx_right_in[5] 0.0001047398
7 cbx_1__1__1_chanx_left_out[12]:2 cbx_1__1__1_chanx_left_out[5]:2 0.0001047398

*RES
0 cbx_2__1_:chanx_left_out[12] cbx_1__1__1_chanx_left_out[12]:3 0.0002303
1 cbx_1__1__1_chanx_left_out[12]:3 cbx_1__1__1_chanx_left_out[12]:2 1e-05
2 cbx_1__1__1_chanx_left_out[12]:2 sb_1__1_:chanx_right_in[12] 0.0009696099

*END

*D_NET cbx_1__1__1_chanx_left_out[15] 0.001536316 //LENGTH 7.660 LUMPCC 0.0004478718 DR

*CONN
*I cbx_2__1_:chanx_left_out[15] O *L 0 *C 668.990 584.800
*I sb_1__1_:chanx_right_in[15] I *L 0 *C 661.330 584.800
*N cbx_1__1__1_chanx_left_out[15]:2 *C 667.519 584.800
*N cbx_1__1__1_chanx_left_out[15]:3 *C 667.520 584.800

*CAP
0 cbx_2__1_:chanx_left_out[15] 0.0002192392
1 sb_1__1_:chanx_right_in[15] 0.0003249829
2 cbx_1__1__1_chanx_left_out[15]:2 0.0003249829
3 cbx_1__1__1_chanx_left_out[15]:3 0.0002192392
4 sb_1__1_:chanx_right_in[15] sb_1__1_:chanx_right_in[2] 0.0001107108
5 cbx_1__1__1_chanx_left_out[15]:2 cbx_1__1__1_chanx_left_out[2]:2 0.0001107108
6 sb_1__1_:chanx_right_in[15] sb_1__1_:chanx_right_out[6] 0.0001132251
7 cbx_1__1__1_chanx_left_out[15]:2 sb_1__1__0_chanx_right_out[6]:3 0.0001132251

*RES
0 cbx_2__1_:chanx_left_out[15] cbx_1__1__1_chanx_left_out[15]:3 0.0002303
1 cbx_1__1__1_chanx_left_out[15]:3 cbx_1__1__1_chanx_left_out[15]:2 1e-05
2 cbx_1__1__1_chanx_left_out[15]:2 sb_1__1_:chanx_right_in[15] 0.0009696099

*END

*D_NET cbx_1__1__1_chanx_left_out[18] 0.006071969 //LENGTH 52.660 LUMPCC 0.0002878348 DR

*CONN
*I cbx_2__1_:chanx_left_out[18] O *L 0 *C 672.060 630.970
*I sb_1__1_:chanx_right_in[18] I *L 0 *C 661.330 592.960
*N cbx_1__1__1_chanx_left_out[18]:2 *C 665.140 592.960
*N cbx_1__1__1_chanx_left_out[18]:3 *C 665.160 592.967
*N cbx_1__1__1_chanx_left_out[18]:4 *C 665.160 632.393
*N cbx_1__1__1_chanx_left_out[18]:5 *C 665.180 632.400
*N cbx_1__1__1_chanx_left_out[18]:6 *C 667.519 632.400
*N cbx_1__1__1_chanx_left_out[18]:7 *C 667.520 632.400
*N cbx_1__1__1_chanx_left_out[18]:8 *C 672.053 632.400
*N cbx_1__1__1_chanx_left_out[18]:9 *C 672.060 632.343

*CAP
0 cbx_2__1_:chanx_left_out[18] 7.655821e-05
1 sb_1__1_:chanx_right_in[18] 0.0002602841
2 cbx_1__1__1_chanx_left_out[18]:2 0.0002602841
3 cbx_1__1__1_chanx_left_out[18]:3 0.002153903
4 cbx_1__1__1_chanx_left_out[18]:4 0.002153903
5 cbx_1__1__1_chanx_left_out[18]:5 0.000127862
6 cbx_1__1__1_chanx_left_out[18]:6 0.000127862
7 cbx_1__1__1_chanx_left_out[18]:7 0.0002734603
8 cbx_1__1__1_chanx_left_out[18]:8 0.0002734603
9 cbx_1__1__1_chanx_left_out[18]:9 7.655821e-05
10 cbx_2__1_:chanx_left_out[18] cbx_2__1_:top_grid_pin_24_[0] 1.868594e-05
11 cbx_1__1__1_chanx_left_out[18]:9 grid_clb_2__2_:bottom_width_0_height_0__pin_24_[0] 1.868594e-05
12 sb_1__1_:chanx_right_in[18] sb_1__1_:chanx_right_out[9] 6.794652e-05
13 cbx_1__1__1_chanx_left_out[18]:2 sb_1__1__0_chanx_right_out[9]:3 6.794652e-05
14 sb_1__1_:chanx_right_in[18] sb_1__1_:chanx_right_out[17] 5.728492e-05
15 cbx_1__1__1_chanx_left_out[18]:2 sb_1__1__0_chanx_right_out[17]:3 5.728492e-05

*RES
0 cbx_2__1_:chanx_left_out[18] cbx_1__1__1_chanx_left_out[18]:9 0.001225446
1 cbx_1__1__1_chanx_left_out[18]:9 cbx_1__1__1_chanx_left_out[18]:8 0.00341
2 cbx_1__1__1_chanx_left_out[18]:8 cbx_1__1__1_chanx_left_out[18]:7 0.0007100917
3 cbx_1__1__1_chanx_left_out[18]:5 cbx_1__1__1_chanx_left_out[18]:4 0.00341
4 cbx_1__1__1_chanx_left_out[18]:4 cbx_1__1__1_chanx_left_out[18]:3 0.006176583
5 cbx_1__1__1_chanx_left_out[18]:2 sb_1__1_:chanx_right_in[18] 0.0005969
6 cbx_1__1__1_chanx_left_out[18]:3 cbx_1__1__1_chanx_left_out[18]:2 0.00341
7 cbx_1__1__1_chanx_left_out[18]:7 cbx_1__1__1_chanx_left_out[18]:6 1e-05
8 cbx_1__1__1_chanx_left_out[18]:6 cbx_1__1__1_chanx_left_out[18]:5 0.0003664433

*END

*D_NET cbx_1__1__1_chanx_right_out[3] 0.00160164 //LENGTH 7.660 LUMPCC 0.0003719851 DR

*CONN
*I cbx_2__1_:chanx_right_out[3] O *L 0 *C 773.570 567.120
*I sb_2__1_:chanx_left_in[3] I *L 0 *C 781.230 567.120

*CAP
0 cbx_2__1_:chanx_right_out[3] 0.0006148276
1 sb_2__1_:chanx_left_in[3] 0.0006148276
2 cbx_2__1_:chanx_right_out[3] cbx_2__1_:chanx_right_out[1] 9.299627e-05
3 sb_2__1_:chanx_left_in[3] sb_2__1_:chanx_left_in[1] 9.299627e-05
4 cbx_2__1_:chanx_right_out[3] sb_2__1__0_chanx_left_out[15]:7 9.299627e-05
5 sb_2__1_:chanx_left_in[3] sb_2__1_:chanx_left_out[15] 9.299627e-05

*RES
0 cbx_2__1_:chanx_right_out[3] sb_2__1_:chanx_left_in[3] 0.001200067

*END

*D_NET cbx_1__1__1_chanx_right_out[6] 0.001463492 //LENGTH 7.660 LUMPCC 0.0003203179 DR

*CONN
*I cbx_2__1_:chanx_right_out[6] O *L 0 *C 773.570 561.680
*I sb_2__1_:chanx_left_in[6] I *L 0 *C 781.230 561.680

*CAP
0 cbx_2__1_:chanx_right_out[6] 0.0005715869
1 sb_2__1_:chanx_left_in[6] 0.0005715869
2 cbx_2__1_:chanx_right_out[6] cbx_1__1__1_chanx_right_out[19]:2 0.0001063349
3 sb_2__1_:chanx_left_in[6] sb_2__1_:chanx_left_in[19] 0.0001063349
4 cbx_2__1_:chanx_right_out[6] cbx_2__1_:chanx_right_in[16] 5.382402e-05
5 sb_2__1_:chanx_left_in[6] sb_2__1_:chanx_left_out[16] 5.382402e-05

*RES
0 cbx_2__1_:chanx_right_out[6] sb_2__1_:chanx_left_in[6] 0.001200067

*END

*D_NET cbx_1__1__1_chanx_right_out[9] 0.001434518 //LENGTH 7.660 LUMPCC 0.0003183331 DR

*CONN
*I cbx_2__1_:chanx_right_out[9] O *L 0 *C 773.570 599.760
*I sb_2__1_:chanx_left_in[9] I *L 0 *C 781.230 599.760

*CAP
0 cbx_2__1_:chanx_right_out[9] 0.0005580925
1 sb_2__1_:chanx_left_in[9] 0.0005580925
2 cbx_2__1_:chanx_right_out[9] cbx_2__1_:chanx_right_in[3] 3.885734e-05
3 sb_2__1_:chanx_left_in[9] sb_2__1_:chanx_left_out[3] 3.885734e-05
4 cbx_2__1_:chanx_right_out[9] cbx_2__1_:chanx_right_in[18] 0.0001203092
5 sb_2__1_:chanx_left_in[9] sb_2__1_:chanx_left_out[18] 0.0001203092

*RES
0 cbx_2__1_:chanx_right_out[9] sb_2__1_:chanx_left_in[9] 0.001200067

*END

*D_NET cbx_1__1__1_chanx_right_out[12] 0.001587959 //LENGTH 7.660 LUMPCC 0.0003962806 DR

*CONN
*I cbx_2__1_:chanx_right_out[12] O *L 0 *C 773.570 625.600
*I sb_2__1_:chanx_left_in[12] I *L 0 *C 781.230 625.600

*CAP
0 cbx_2__1_:chanx_right_out[12] 0.000595839
1 sb_2__1_:chanx_left_in[12] 0.000595839
2 cbx_2__1_:chanx_right_out[12] cbx_2__1_:chanx_right_in[11] 9.562019e-05
3 sb_2__1_:chanx_left_in[12] sb_2__1_:chanx_left_out[11] 9.562019e-05
4 cbx_2__1_:chanx_right_out[12] cbx_2__1_:chanx_right_in[13] 0.0001025201
5 sb_2__1_:chanx_left_in[12] sb_2__1_:chanx_left_out[13] 0.0001025201

*RES
0 cbx_2__1_:chanx_right_out[12] sb_2__1_:chanx_left_in[12] 0.001200067

*END

*D_NET cbx_1__1__1_chanx_right_out[15] 0.00154886 //LENGTH 7.660 LUMPCC 0.000265193 DR

*CONN
*I cbx_2__1_:chanx_right_out[15] O *L 0 *C 773.570 605.200
*I sb_2__1_:chanx_left_in[15] I *L 0 *C 781.230 605.200

*CAP
0 cbx_2__1_:chanx_right_out[15] 0.0006418333
1 sb_2__1_:chanx_left_in[15] 0.0006418333
2 cbx_2__1_:chanx_right_out[15] cbx_2__1_:chanx_right_out[0] 9.428097e-05
3 sb_2__1_:chanx_left_in[15] sb_2__1_:chanx_left_in[0] 9.428097e-05
4 cbx_2__1_:chanx_right_out[15] cbx_2__1_:chanx_right_in[4] 3.831551e-05
5 sb_2__1_:chanx_left_in[15] sb_2__1_:chanx_left_out[4] 3.831551e-05

*RES
0 cbx_2__1_:chanx_right_out[15] sb_2__1_:chanx_left_in[15] 0.001200067

*END

*D_NET cbx_1__1__1_chanx_right_out[18] 0.006203612 //LENGTH 47.660 LUMPCC 0.001456447 DR

*CONN
*I cbx_2__1_:chanx_right_out[18] O *L 0 *C 771.420 630.970
*I sb_2__1_:chanx_left_in[18] I *L 0 *C 781.230 595.680
*N cbx_1__1__1_chanx_right_out[18]:2 *C 779.260 595.680
*N cbx_1__1__1_chanx_right_out[18]:3 *C 779.240 595.688
*N cbx_1__1__1_chanx_right_out[18]:4 *C 779.240 631.712
*N cbx_1__1__1_chanx_right_out[18]:5 *C 779.220 631.720
*N cbx_1__1__1_chanx_right_out[18]:6 *C 771.428 631.720
*N cbx_1__1__1_chanx_right_out[18]:7 *C 771.420 631.663

*CAP
0 cbx_2__1_:chanx_right_out[18] 6.144747e-05
1 sb_2__1_:chanx_left_in[18] 0.0002676748
2 cbx_1__1__1_chanx_right_out[18]:2 0.0002676748
3 cbx_1__1__1_chanx_right_out[18]:3 0.001579254
4 cbx_1__1__1_chanx_right_out[18]:4 0.001579254
5 cbx_1__1__1_chanx_right_out[18]:5 0.0004652063
6 cbx_1__1__1_chanx_right_out[18]:6 0.0004652063
7 cbx_1__1__1_chanx_right_out[18]:7 6.144747e-05
8 cbx_1__1__1_chanx_right_out[18]:3 direct_interc_4_out[0]:6 0.0007282233
9 cbx_1__1__1_chanx_right_out[18]:4 direct_interc_4_out[0]:7 0.0007282233

*RES
0 cbx_2__1_:chanx_right_out[18] cbx_1__1__1_chanx_right_out[18]:7 0.0006183035
1 cbx_1__1__1_chanx_right_out[18]:2 sb_2__1_:chanx_left_in[18] 0.0003086333
2 cbx_1__1__1_chanx_right_out[18]:3 cbx_1__1__1_chanx_right_out[18]:2 0.00341
3 cbx_1__1__1_chanx_right_out[18]:5 cbx_1__1__1_chanx_right_out[18]:4 0.00341
4 cbx_1__1__1_chanx_right_out[18]:4 cbx_1__1__1_chanx_right_out[18]:3 0.005643916
5 cbx_1__1__1_chanx_right_out[18]:7 cbx_1__1__1_chanx_right_out[18]:6 0.00341
6 cbx_1__1__1_chanx_right_out[18]:6 cbx_1__1__1_chanx_right_out[18]:5 0.001220825

*END

*D_NET cbx_1__1__1_top_grid_pin_17_[0] 0.00128901 //LENGTH 11.020 LUMPCC 0.0006314216 DR

*CONN
*I cbx_2__1_:top_grid_pin_17_[0] O *L 0 *C 704.720 630.970
*I grid_clb_2__2_:bottom_width_0_height_0__pin_17_[0] I *L 0 *C 704.720 641.990

*CAP
0 cbx_2__1_:top_grid_pin_17_[0] 0.0003287942
1 grid_clb_2__2_:bottom_width_0_height_0__pin_17_[0] 0.0003287942
2 cbx_2__1_:top_grid_pin_17_[0] cbx_2__1_:top_grid_pin_18_[0] 0.0001447094
3 grid_clb_2__2_:bottom_width_0_height_0__pin_17_[0] grid_clb_2__2_:bottom_width_0_height_0__pin_18_[0] 0.0001447094
4 cbx_2__1_:top_grid_pin_17_[0] cbx_2__1_:top_grid_pin_19_[0] 7.866155e-05
5 cbx_2__1_:top_grid_pin_17_[0] cbx_1__1__1_top_grid_pin_19_[0]:4 7.687044e-05
6 cbx_2__1_:top_grid_pin_17_[0] cbx_1__1__1_top_grid_pin_19_[0]:2 1.546943e-05
7 grid_clb_2__2_:bottom_width_0_height_0__pin_17_[0] grid_clb_2__2_:bottom_width_0_height_0__pin_19_[0] 1.546943e-05
8 grid_clb_2__2_:bottom_width_0_height_0__pin_17_[0] cbx_1__1__1_top_grid_pin_19_[0]:3 7.687044e-05
9 grid_clb_2__2_:bottom_width_0_height_0__pin_17_[0] cbx_1__1__1_top_grid_pin_19_[0]:5 7.866155e-05

*RES
0 cbx_2__1_:top_grid_pin_17_[0] grid_clb_2__2_:bottom_width_0_height_0__pin_17_[0] 0.009839285

*END

*D_NET cbx_1__1__1_top_grid_pin_20_[0] 0.001080763 //LENGTH 11.020 LUMPCC 0 DR

*CONN
*I cbx_2__1_:top_grid_pin_20_[0] O *L 0 *C 726.340 630.970
*I grid_clb_2__2_:bottom_width_0_height_0__pin_20_[0] I *L 0 *C 726.340 641.990

*CAP
0 cbx_2__1_:top_grid_pin_20_[0] 0.0005403816
1 grid_clb_2__2_:bottom_width_0_height_0__pin_20_[0] 0.0005403816

*RES
0 cbx_2__1_:top_grid_pin_20_[0] grid_clb_2__2_:bottom_width_0_height_0__pin_20_[0] 0.009839285

*END

*D_NET cbx_1__1__1_top_grid_pin_22_[0] 0.001367748 //LENGTH 12.500 LUMPCC 0.0003496864 DR

*CONN
*I cbx_2__1_:top_grid_pin_22_[0] O *L 0 *C 701.960 630.970
*I grid_clb_2__2_:bottom_width_0_height_0__pin_22_[0] I *L 0 *C 701.960 641.990
*N cbx_1__1__1_top_grid_pin_22_[0]:2 *C 701.960 639.200
*N cbx_1__1__1_top_grid_pin_22_[0]:3 *C 702.420 639.200
*N cbx_1__1__1_top_grid_pin_22_[0]:4 *C 702.420 636.480
*N cbx_1__1__1_top_grid_pin_22_[0]:5 *C 701.960 636.480

*CAP
0 cbx_2__1_:top_grid_pin_22_[0] 0.0001876122
1 grid_clb_2__2_:bottom_width_0_height_0__pin_22_[0] 0.0001611897
2 cbx_1__1__1_top_grid_pin_22_[0]:2 0.0001889038
3 cbx_1__1__1_top_grid_pin_22_[0]:3 0.0001345876
4 cbx_1__1__1_top_grid_pin_22_[0]:4 0.0001325146
5 cbx_1__1__1_top_grid_pin_22_[0]:5 0.0002132532
6 cbx_2__1_:top_grid_pin_22_[0] cbx_2__1_:top_grid_pin_16_[0] 8.090731e-05
7 grid_clb_2__2_:bottom_width_0_height_0__pin_22_[0] grid_clb_2__2_:bottom_width_0_height_0__pin_16_[0] 1.554563e-05
8 cbx_1__1__1_top_grid_pin_22_[0]:5 grid_clb_2__2_:bottom_width_0_height_0__pin_16_[0] 8.090731e-05
9 cbx_1__1__1_top_grid_pin_22_[0]:4 cbx_2__1_:top_grid_pin_16_[0] 7.839025e-05
10 cbx_1__1__1_top_grid_pin_22_[0]:2 cbx_2__1_:top_grid_pin_16_[0] 1.554563e-05
11 cbx_1__1__1_top_grid_pin_22_[0]:3 grid_clb_2__2_:bottom_width_0_height_0__pin_16_[0] 7.839025e-05

*RES
0 cbx_2__1_:top_grid_pin_22_[0] cbx_1__1__1_top_grid_pin_22_[0]:5 0.004919643
1 cbx_1__1__1_top_grid_pin_22_[0]:5 cbx_1__1__1_top_grid_pin_22_[0]:4 0.0004107143
2 cbx_1__1__1_top_grid_pin_22_[0]:4 cbx_1__1__1_top_grid_pin_22_[0]:3 0.002428572
3 cbx_1__1__1_top_grid_pin_22_[0]:2 grid_clb_2__2_:bottom_width_0_height_0__pin_22_[0] 0.002491071
4 cbx_1__1__1_top_grid_pin_22_[0]:3 cbx_1__1__1_top_grid_pin_22_[0]:2 0.0004107143

*END

*D_NET cbx_1__1__1_top_grid_pin_26_[0] 0.001248204 //LENGTH 11.020 LUMPCC 0.0005730883 DR

*CONN
*I cbx_2__1_:top_grid_pin_26_[0] O *L 0 *C 682.180 630.970
*I grid_clb_2__2_:bottom_width_0_height_0__pin_26_[0] I *L 0 *C 682.180 641.990

*CAP
0 cbx_2__1_:top_grid_pin_26_[0] 0.0003375577
1 grid_clb_2__2_:bottom_width_0_height_0__pin_26_[0] 0.0003375577
2 cbx_2__1_:top_grid_pin_26_[0] cbx_2__1_:top_grid_pin_25_[0] 0.0001432721
3 grid_clb_2__2_:bottom_width_0_height_0__pin_26_[0] grid_clb_2__2_:bottom_width_0_height_0__pin_25_[0] 0.0001432721
4 cbx_2__1_:top_grid_pin_26_[0] cbx_2__1_:top_grid_pin_27_[0] 0.0001432721
5 grid_clb_2__2_:bottom_width_0_height_0__pin_26_[0] grid_clb_2__2_:bottom_width_0_height_0__pin_27_[0] 0.0001432721

*RES
0 cbx_2__1_:top_grid_pin_26_[0] grid_clb_2__2_:bottom_width_0_height_0__pin_26_[0] 0.009839285

*END
