*SPEF "1481-1998"
*DESIGN "cbx_1__0_"
*DATE "Tue Oct 27 11:35:06 2020"
*
*
*
*
*DIVIDER /
*DELIMITER :
*T_UNIT 1 NS
*C_UNIT 1 PF
*R_UNIT 1 KOHM
*L_UNIT 1 HENRY

// XY_UNIT 1 UM
// PARASITIC_TECH nominal at 25.000 degree

*PORTS
prog_clk[0] I *C 2.300 64.600
chanx_left_in[0] I *C 0.690 10.880
chanx_left_in[1] I *C 0.690 58.480
chanx_left_in[2] I *C 0.690 54.400
chanx_left_in[3] I *C 0.690 57.120
chanx_left_in[4] I *C 0.690 27.880
chanx_left_in[5] I *C 0.690 61.880
chanx_left_in[6] I *C 0.690 34.680
chanx_left_in[7] I *C 0.690 39.440
chanx_left_in[8] I *C 0.690 26.520
chanx_left_in[9] I *C 0.690 47.600
chanx_left_in[10] I *C 0.690 20.400
chanx_left_in[11] I *C 0.690 53.040
chanx_left_in[12] I *C 0.690 30.600
chanx_left_in[13] I *C 0.690 55.760
chanx_left_in[14] I *C 0.690 23.120
chanx_left_in[15] I *C 0.690 44.880
chanx_left_in[16] I *C 0.690 36.040
chanx_left_in[17] I *C 0.690 50.320
chanx_left_in[18] I *C 0.690 21.760
chanx_left_in[19] I *C 0.690 43.520
chanx_right_in[0] I *C 76.590 6.800
chanx_right_in[1] I *C 76.590 60.520
chanx_right_in[2] I *C 76.590 20.400
chanx_right_in[3] I *C 76.590 49.640
chanx_right_in[4] I *C 76.590 26.520
chanx_right_in[5] I *C 76.590 61.880
chanx_right_in[6] I *C 76.590 28.560
chanx_right_in[7] I *C 76.590 42.840
chanx_right_in[8] I *C 76.590 21.760
chanx_right_in[9] I *C 76.590 40.120
chanx_right_in[10] I *C 76.590 24.480
chanx_right_in[11] I *C 76.590 41.480
chanx_right_in[12] I *C 76.590 31.280
chanx_right_in[13] I *C 76.590 51.000
chanx_right_in[14] I *C 76.590 23.120
chanx_right_in[15] I *C 76.590 46.240
chanx_right_in[16] I *C 76.590 8.160
chanx_right_in[17] I *C 76.590 34.680
chanx_right_in[18] I *C 76.590 19.040
chanx_right_in[19] I *C 76.590 29.920
ccff_head[0] I *C 76.590 9.520
chanx_left_out[0] O *C 0.690 17.680
chanx_left_out[1] O *C 0.690 14.960
chanx_left_out[2] O *C 0.690 29.240
chanx_left_out[3] O *C 0.690 8.160
chanx_left_out[4] O *C 0.690 12.240
chanx_left_out[5] O *C 0.690 6.800
chanx_left_out[6] O *C 0.690 38.080
chanx_left_out[7] O *C 0.690 42.160
chanx_left_out[8] O *C 0.690 13.600
chanx_left_out[9] O *C 0.690 46.240
chanx_left_out[10] O *C 0.690 19.040
chanx_left_out[11] O *C 0.690 16.320
chanx_left_out[12] O *C 0.690 31.960
chanx_left_out[13] O *C 0.690 59.840
chanx_left_out[14] O *C 0.690 24.480
chanx_left_out[15] O *C 0.690 33.320
chanx_left_out[16] O *C 0.690 9.520
chanx_left_out[17] O *C 0.690 40.800
chanx_left_out[18] O *C 0.690 51.680
chanx_left_out[19] O *C 0.690 48.960
chanx_right_out[0] O *C 76.590 4.080
chanx_right_out[1] O *C 76.590 52.360
chanx_right_out[2] O *C 76.590 10.880
chanx_right_out[3] O *C 76.590 53.720
chanx_right_out[4] O *C 76.590 36.040
chanx_right_out[5] O *C 76.590 12.240
chanx_right_out[6] O *C 76.590 14.960
chanx_right_out[7] O *C 76.590 57.800
chanx_right_out[8] O *C 76.590 13.600
chanx_right_out[9] O *C 76.590 56.440
chanx_right_out[10] O *C 76.590 55.080
chanx_right_out[11] O *C 76.590 59.160
chanx_right_out[12] O *C 76.590 37.400
chanx_right_out[13] O *C 76.590 38.760
chanx_right_out[14] O *C 76.590 5.440
chanx_right_out[15] O *C 76.590 47.600
chanx_right_out[16] O *C 76.590 32.640
chanx_right_out[17] O *C 76.590 17.680
chanx_right_out[18] O *C 76.590 16.320
chanx_right_out[19] O *C 76.590 44.880
top_grid_pin_16_[0] O *C 24.840 64.600
top_grid_pin_17_[0] O *C 23.000 64.600
top_grid_pin_18_[0] O *C 43.700 64.600
top_grid_pin_19_[0] O *C 23.920 64.600
top_grid_pin_20_[0] O *C 10.120 64.600
top_grid_pin_21_[0] O *C 4.140 64.600
top_grid_pin_22_[0] O *C 11.040 64.600
top_grid_pin_23_[0] O *C 11.960 64.600
top_grid_pin_24_[0] O *C 6.900 64.600
top_grid_pin_25_[0] O *C 5.060 64.600
top_grid_pin_26_[0] O *C 7.820 64.600
top_grid_pin_27_[0] O *C 5.980 64.600
top_grid_pin_28_[0] O *C 57.960 64.600
top_grid_pin_29_[0] O *C 44.620 64.600
top_grid_pin_30_[0] O *C 45.540 64.600
top_grid_pin_31_[0] O *C 58.880 64.600
bottom_grid_pin_0_[0] O *C 66.700 0.680
ccff_tail[0] O *C 65.780 0.680
VDD I *C 38.640 32.640
VSS I *C 38.640 32.640

*D_NET chanx_left_in[0] 0.01671886 //LENGTH 115.495 LUMPCC 0.001440263 DR

*CONN
*P chanx_left_in[0] I *L 0.29796 *C 1.305 10.880
*I mux_bottom_ipin_6\/mux_l1_in_0_:A1 I *L 0.00198 *C 17.480 12.580
*I mux_bottom_ipin_8\/mux_l1_in_0_:A1 I *L 0.00198 *C 18.305 14.620
*I mux_bottom_ipin_4\/mux_l1_in_0_:A1 I *L 0.00198 *C 25.665 18.020
*I mux_bottom_ipin_14\/mux_l1_in_0_:A1 I *L 0.00198 *C 50.965 14.620
*I mux_top_ipin_0\/mux_l1_in_0_:A1 I *L 0.00198 *C 63.940 14.620
*I mux_bottom_ipin_0\/mux_l1_in_0_:A1 I *L 0.00198 *C 67.065 18.020
*I FTB_1__0:A I *L 0.001743 *C 71.760 6.800
*I mux_bottom_ipin_12\/mux_l1_in_0_:A1 I *L 0.00198 *C 63.940 20.060
*I mux_bottom_ipin_2\/mux_l1_in_0_:A1 I *L 0.00198 *C 41.960 18.020
*I mux_bottom_ipin_10\/mux_l1_in_0_:A1 I *L 0.00198 *C 23.100 14.620
*N chanx_left_in[0]:11 *C 23.138 14.620
*N chanx_left_in[0]:12 *C 23.460 14.620
*N chanx_left_in[0]:13 *C 41.922 18.020
*N chanx_left_in[0]:14 *C 63.940 20.060
*N chanx_left_in[0]:15 *C 63.940 20.400
*N chanx_left_in[0]:16 *C 67.115 20.400
*N chanx_left_in[0]:17 *C 67.160 20.355
*N chanx_left_in[0]:18 *C 71.722 6.800
*N chanx_left_in[0]:19 *C 70.885 6.800
*N chanx_left_in[0]:20 *C 70.840 6.845
*N chanx_left_in[0]:21 *C 70.840 17.975
*N chanx_left_in[0]:22 *C 70.795 18.020
*N chanx_left_in[0]:23 *C 67.205 18.020
*N chanx_left_in[0]:24 *C 67.160 18.020
*N chanx_left_in[0]:25 *C 67.160 14.665
*N chanx_left_in[0]:26 *C 67.115 14.620
*N chanx_left_in[0]:27 *C 63.978 14.620
*N chanx_left_in[0]:28 *C 64.400 14.620
*N chanx_left_in[0]:29 *C 64.400 14.280
*N chanx_left_in[0]:30 *C 51.060 14.280
*N chanx_left_in[0]:31 *C 50.965 14.620
*N chanx_left_in[0]:32 *C 51.060 14.665
*N chanx_left_in[0]:33 *C 51.060 16.955
*N chanx_left_in[0]:34 *C 51.015 17.000
*N chanx_left_in[0]:35 *C 44.620 17.000
*N chanx_left_in[0]:36 *C 44.620 17.340
*N chanx_left_in[0]:37 *C 40.940 17.340
*N chanx_left_in[0]:38 *C 40.940 17.998
*N chanx_left_in[0]:39 *C 40.905 18.360
*N chanx_left_in[0]:40 *C 25.628 18.020
*N chanx_left_in[0]:41 *C 24.840 18.020
*N chanx_left_in[0]:42 *C 24.840 18.360
*N chanx_left_in[0]:43 *C 24.840 18.360
*N chanx_left_in[0]:44 *C 23.920 18.360
*N chanx_left_in[0]:45 *C 23.920 14.325
*N chanx_left_in[0]:46 *C 23.875 14.280
*N chanx_left_in[0]:47 *C 23.460 14.280
*N chanx_left_in[0]:48 *C 18.400 14.280
*N chanx_left_in[0]:49 *C 18.305 14.620
*N chanx_left_in[0]:50 *C 18.400 14.575
*N chanx_left_in[0]:51 *C 18.400 12.580
*N chanx_left_in[0]:52 *C 17.480 12.580
*N chanx_left_in[0]:53 *C 17.480 12.580
*N chanx_left_in[0]:54 *C 17.970 12.580
*N chanx_left_in[0]:55 *C 17.985 12.240
*N chanx_left_in[0]:56 *C 18.400 12.240
*N chanx_left_in[0]:57 *C 18.400 11.617
*N chanx_left_in[0]:58 *C 18.393 11.560
*N chanx_left_in[0]:59 *C 1.380 11.560

*CAP
0 chanx_left_in[0] 5.534774e-05
1 mux_bottom_ipin_6\/mux_l1_in_0_:A1 1e-06
2 mux_bottom_ipin_8\/mux_l1_in_0_:A1 1e-06
3 mux_bottom_ipin_4\/mux_l1_in_0_:A1 1e-06
4 mux_bottom_ipin_14\/mux_l1_in_0_:A1 1e-06
5 mux_top_ipin_0\/mux_l1_in_0_:A1 1e-06
6 mux_bottom_ipin_0\/mux_l1_in_0_:A1 1e-06
7 FTB_1__0:A 1e-06
8 mux_bottom_ipin_12\/mux_l1_in_0_:A1 1e-06
9 mux_bottom_ipin_2\/mux_l1_in_0_:A1 1e-06
10 mux_bottom_ipin_10\/mux_l1_in_0_:A1 1e-06
11 chanx_left_in[0]:11 4.677574e-05
12 chanx_left_in[0]:12 7.347206e-05
13 chanx_left_in[0]:13 4.978907e-05
14 chanx_left_in[0]:14 5.502907e-05
15 chanx_left_in[0]:15 0.0002339394
16 chanx_left_in[0]:16 0.00020679
17 chanx_left_in[0]:17 0.0001291893
18 chanx_left_in[0]:18 8.121661e-05
19 chanx_left_in[0]:19 8.121661e-05
20 chanx_left_in[0]:20 0.0007028449
21 chanx_left_in[0]:21 0.0007028449
22 chanx_left_in[0]:22 0.0002886752
23 chanx_left_in[0]:23 0.0002886752
24 chanx_left_in[0]:24 0.0003237351
25 chanx_left_in[0]:25 0.000160576
26 chanx_left_in[0]:26 0.0002173326
27 chanx_left_in[0]:27 4.605139e-05
28 chanx_left_in[0]:28 0.0002900716
29 chanx_left_in[0]:29 0.0009796964
30 chanx_left_in[0]:30 0.0009809256
31 chanx_left_in[0]:31 5.685621e-05
32 chanx_left_in[0]:32 0.0001683442
33 chanx_left_in[0]:33 0.0001683442
34 chanx_left_in[0]:34 0.0005018399
35 chanx_left_in[0]:35 0.0005298678
36 chanx_left_in[0]:36 0.0002072935
37 chanx_left_in[0]:37 0.0002224605
38 chanx_left_in[0]:38 0.0001233677
39 chanx_left_in[0]:39 0.001190663
40 chanx_left_in[0]:40 4.115517e-05
41 chanx_left_in[0]:41 7.089161e-05
42 chanx_left_in[0]:42 0.001190016
43 chanx_left_in[0]:43 9.837428e-05
44 chanx_left_in[0]:44 0.0003252567
45 chanx_left_in[0]:45 0.0002624121
46 chanx_left_in[0]:46 4.643454e-05
47 chanx_left_in[0]:47 0.0004234274
48 chanx_left_in[0]:48 0.0003776367
49 chanx_left_in[0]:49 5.545949e-05
50 chanx_left_in[0]:50 0.0001278429
51 chanx_left_in[0]:51 0.0001554574
52 chanx_left_in[0]:52 3.171892e-05
53 chanx_left_in[0]:53 6.786434e-05
54 chanx_left_in[0]:54 8.61958e-05
55 chanx_left_in[0]:55 3.773042e-05
56 chanx_left_in[0]:56 6.512882e-05
57 chanx_left_in[0]:57 5.235173e-05
58 chanx_left_in[0]:58 0.001267328
59 chanx_left_in[0]:59 0.001322675
60 chanx_left_in[0]:42 mux_tree_tapbuf_size8_0_sram[0]:7 0.0001271595
61 chanx_left_in[0]:39 mux_tree_tapbuf_size8_0_sram[0]:6 0.0001271595
62 chanx_left_in[0]:24 mux_bottom_ipin_0/sky130_fd_sc_hd__mux2_1_1_X[0]:8 6.136857e-05
63 chanx_left_in[0]:24 mux_bottom_ipin_0/sky130_fd_sc_hd__mux2_1_1_X[0]:9 3.004372e-05
64 chanx_left_in[0]:17 mux_bottom_ipin_0/sky130_fd_sc_hd__mux2_1_1_X[0]:8 3.004372e-05
65 chanx_left_in[0]:26 mux_bottom_ipin_0/sky130_fd_sc_hd__mux2_1_1_X[0]:10 6.162375e-06
66 chanx_left_in[0]:25 mux_bottom_ipin_0/sky130_fd_sc_hd__mux2_1_1_X[0]:9 6.136857e-05
67 chanx_left_in[0]:28 mux_bottom_ipin_0/sky130_fd_sc_hd__mux2_1_1_X[0]:11 6.162375e-06
68 chanx_left_in[0]:16 mux_bottom_ipin_12/sky130_fd_sc_hd__mux2_1_0_X[0]:6 5.14987e-05
69 chanx_left_in[0]:15 mux_bottom_ipin_12/sky130_fd_sc_hd__mux2_1_0_X[0]:7 5.14987e-05
70 chanx_left_in[0]:33 mux_top_ipin_0/sky130_fd_sc_hd__mux2_1_2_X[0]:5 3.499039e-07
71 chanx_left_in[0]:32 mux_top_ipin_0/sky130_fd_sc_hd__mux2_1_2_X[0]:4 3.499039e-07
72 chanx_left_in[0]:30 mux_top_ipin_0/sky130_fd_sc_hd__mux2_1_2_X[0]:3 6.070917e-05
73 chanx_left_in[0]:29 mux_top_ipin_0/sky130_fd_sc_hd__mux2_1_2_X[0]:2 6.070917e-05
74 chanx_left_in[0]:37 mux_bottom_ipin_2/sky130_fd_sc_hd__mux2_1_0_X[0]:7 5.573051e-05
75 chanx_left_in[0]:36 mux_bottom_ipin_2/sky130_fd_sc_hd__mux2_1_0_X[0]:8 5.573051e-05
76 chanx_left_in[0]:13 mux_bottom_ipin_2/sky130_fd_sc_hd__mux2_1_2_X[0]:7 3.215519e-05
77 chanx_left_in[0]:39 mux_bottom_ipin_2/sky130_fd_sc_hd__mux2_1_2_X[0]:7 1.718865e-07
78 chanx_left_in[0]:38 mux_bottom_ipin_2/sky130_fd_sc_hd__mux2_1_2_X[0]:6 3.215519e-05
79 chanx_left_in[0]:38 mux_bottom_ipin_2/sky130_fd_sc_hd__mux2_1_2_X[0]:8 1.718865e-07
80 chanx_left_in[0]:38 mux_bottom_ipin_2/sky130_fd_sc_hd__mux2_1_2_X[0]:7 4.357019e-08
81 chanx_left_in[0]:37 mux_bottom_ipin_2/sky130_fd_sc_hd__mux2_1_2_X[0]:6 1.334178e-05
82 chanx_left_in[0]:37 mux_bottom_ipin_2/sky130_fd_sc_hd__mux2_1_2_X[0]:8 4.357019e-08
83 chanx_left_in[0]:36 mux_bottom_ipin_2/sky130_fd_sc_hd__mux2_1_2_X[0]:7 1.334178e-05
84 chanx_left_in[0]:58 chanx_left_out[4]:2 0.0002813966
85 chanx_left_in[0]:59 chanx_left_out[4] 0.0002813966

*RES
0 chanx_left_in[0] chanx_left_in[0]:59 0.0001065333
1 chanx_left_in[0]:23 mux_bottom_ipin_0\/mux_l1_in_0_:A1 0.152
2 chanx_left_in[0]:23 chanx_left_in[0]:22 0.003205358
3 chanx_left_in[0]:24 chanx_left_in[0]:23 0.0045
4 chanx_left_in[0]:24 chanx_left_in[0]:17 0.002084821
5 chanx_left_in[0]:57 chanx_left_in[0]:56 0.0005558037
6 chanx_left_in[0]:58 chanx_left_in[0]:57 0.00341
7 chanx_left_in[0]:16 chanx_left_in[0]:15 0.002834822
8 chanx_left_in[0]:17 chanx_left_in[0]:16 0.0045
9 chanx_left_in[0]:14 mux_bottom_ipin_12\/mux_l1_in_0_:A1 0.152
10 chanx_left_in[0]:27 mux_top_ipin_0\/mux_l1_in_0_:A1 0.152
11 chanx_left_in[0]:40 mux_bottom_ipin_4\/mux_l1_in_0_:A1 0.152
12 chanx_left_in[0]:11 mux_bottom_ipin_10\/mux_l1_in_0_:A1 0.152
13 chanx_left_in[0]:26 chanx_left_in[0]:25 0.0045
14 chanx_left_in[0]:25 chanx_left_in[0]:24 0.002995536
15 chanx_left_in[0]:31 mux_bottom_ipin_14\/mux_l1_in_0_:A1 0.152
16 chanx_left_in[0]:31 chanx_left_in[0]:30 0.0003035715
17 chanx_left_in[0]:46 chanx_left_in[0]:45 0.0045
18 chanx_left_in[0]:45 chanx_left_in[0]:44 0.003602679
19 chanx_left_in[0]:42 chanx_left_in[0]:41 0.0003035715
20 chanx_left_in[0]:42 chanx_left_in[0]:39 0.01434375
21 chanx_left_in[0]:43 chanx_left_in[0]:42 0.0045
22 chanx_left_in[0]:49 mux_bottom_ipin_8\/mux_l1_in_0_:A1 0.152
23 chanx_left_in[0]:49 chanx_left_in[0]:48 0.0003035715
24 chanx_left_in[0]:50 chanx_left_in[0]:49 0.0045
25 chanx_left_in[0]:13 mux_bottom_ipin_2\/mux_l1_in_0_:A1 0.152
26 chanx_left_in[0]:22 chanx_left_in[0]:21 0.0045
27 chanx_left_in[0]:21 chanx_left_in[0]:20 0.009937501
28 chanx_left_in[0]:19 chanx_left_in[0]:18 0.0007477679
29 chanx_left_in[0]:20 chanx_left_in[0]:19 0.0045
30 chanx_left_in[0]:18 FTB_1__0:A 0.152
31 chanx_left_in[0]:34 chanx_left_in[0]:33 0.0045
32 chanx_left_in[0]:33 chanx_left_in[0]:32 0.002044643
33 chanx_left_in[0]:32 chanx_left_in[0]:31 0.0045
34 chanx_left_in[0]:52 mux_bottom_ipin_6\/mux_l1_in_0_:A1 0.152
35 chanx_left_in[0]:53 chanx_left_in[0]:52 0.0045
36 chanx_left_in[0]:48 chanx_left_in[0]:47 0.004517857
37 chanx_left_in[0]:47 chanx_left_in[0]:46 0.0003705357
38 chanx_left_in[0]:47 chanx_left_in[0]:12 0.0003035715
39 chanx_left_in[0]:12 chanx_left_in[0]:11 0.0002879465
40 chanx_left_in[0]:41 chanx_left_in[0]:40 0.000703125
41 chanx_left_in[0]:39 chanx_left_in[0]:38 0.0001970109
42 chanx_left_in[0]:38 chanx_left_in[0]:37 0.0005870536
43 chanx_left_in[0]:38 chanx_left_in[0]:13 0.0008772322
44 chanx_left_in[0]:37 chanx_left_in[0]:36 0.003285714
45 chanx_left_in[0]:36 chanx_left_in[0]:35 0.0003035715
46 chanx_left_in[0]:35 chanx_left_in[0]:34 0.005709821
47 chanx_left_in[0]:30 chanx_left_in[0]:29 0.01191072
48 chanx_left_in[0]:29 chanx_left_in[0]:28 0.0003035715
49 chanx_left_in[0]:28 chanx_left_in[0]:27 0.0003772322
50 chanx_left_in[0]:28 chanx_left_in[0]:26 0.002424107
51 chanx_left_in[0]:15 chanx_left_in[0]:14 0.0003035715
52 chanx_left_in[0]:54 chanx_left_in[0]:53 0.0004375
53 chanx_left_in[0]:54 chanx_left_in[0]:51 0.0003839286
54 chanx_left_in[0]:51 chanx_left_in[0]:50 0.00178125
55 chanx_left_in[0]:55 chanx_left_in[0]:54 0.0002125
56 chanx_left_in[0]:56 chanx_left_in[0]:55 0.0003705357
57 chanx_left_in[0]:44 chanx_left_in[0]:43 0.0008214285
58 chanx_left_in[0]:59 chanx_left_in[0]:58 0.002665292

*END

*D_NET mux_tree_tapbuf_size10_mem_7_ccff_tail[0] 0.003307908 //LENGTH 27.555 LUMPCC 0.0004654385 DR

*CONN
*I mem_bottom_ipin_13\/FTB_8__47:X O *L 0 *C 49.220 57.800
*I mem_bottom_ipin_14\/sky130_fd_sc_hd__dfxbp_1_0_:D I *L 0.001695 *C 49.855 31.620
*N mux_tree_tapbuf_size10_mem_7_ccff_tail[0]:2 *C 49.855 31.620
*N mux_tree_tapbuf_size10_mem_7_ccff_tail[0]:3 *C 49.680 31.620
*N mux_tree_tapbuf_size10_mem_7_ccff_tail[0]:4 *C 49.680 31.665
*N mux_tree_tapbuf_size10_mem_7_ccff_tail[0]:5 *C 49.680 57.755
*N mux_tree_tapbuf_size10_mem_7_ccff_tail[0]:6 *C 49.635 57.800
*N mux_tree_tapbuf_size10_mem_7_ccff_tail[0]:7 *C 49.258 57.800

*CAP
0 mem_bottom_ipin_13\/FTB_8__47:X 1e-06
1 mem_bottom_ipin_14\/sky130_fd_sc_hd__dfxbp_1_0_:D 1e-06
2 mux_tree_tapbuf_size10_mem_7_ccff_tail[0]:2 4.92565e-05
3 mux_tree_tapbuf_size10_mem_7_ccff_tail[0]:3 5.37247e-05
4 mux_tree_tapbuf_size10_mem_7_ccff_tail[0]:4 0.001319164
5 mux_tree_tapbuf_size10_mem_7_ccff_tail[0]:5 0.001319164
6 mux_tree_tapbuf_size10_mem_7_ccff_tail[0]:6 4.957984e-05
7 mux_tree_tapbuf_size10_mem_7_ccff_tail[0]:7 4.957984e-05
8 mux_tree_tapbuf_size10_mem_7_ccff_tail[0]:4 mux_bottom_ipin_3/sky130_fd_sc_hd__mux2_1_2_X[0]:5 3.866876e-05
9 mux_tree_tapbuf_size10_mem_7_ccff_tail[0]:5 mux_bottom_ipin_3/sky130_fd_sc_hd__mux2_1_2_X[0]:4 3.866876e-05
10 mux_tree_tapbuf_size10_mem_7_ccff_tail[0]:4 mux_bottom_ipin_3/sky130_fd_sc_hd__mux2_1_3_X[0]:5 0.0001940505
11 mux_tree_tapbuf_size10_mem_7_ccff_tail[0]:5 mux_bottom_ipin_3/sky130_fd_sc_hd__mux2_1_3_X[0]:4 0.0001940505

*RES
0 mem_bottom_ipin_13\/FTB_8__47:X mux_tree_tapbuf_size10_mem_7_ccff_tail[0]:7 0.152
1 mux_tree_tapbuf_size10_mem_7_ccff_tail[0]:2 mem_bottom_ipin_14\/sky130_fd_sc_hd__dfxbp_1_0_:D 0.152
2 mux_tree_tapbuf_size10_mem_7_ccff_tail[0]:3 mux_tree_tapbuf_size10_mem_7_ccff_tail[0]:2 9.51087e-05
3 mux_tree_tapbuf_size10_mem_7_ccff_tail[0]:4 mux_tree_tapbuf_size10_mem_7_ccff_tail[0]:3 0.0045
4 mux_tree_tapbuf_size10_mem_7_ccff_tail[0]:6 mux_tree_tapbuf_size10_mem_7_ccff_tail[0]:5 0.0045
5 mux_tree_tapbuf_size10_mem_7_ccff_tail[0]:5 mux_tree_tapbuf_size10_mem_7_ccff_tail[0]:4 0.02329464
6 mux_tree_tapbuf_size10_mem_7_ccff_tail[0]:7 mux_tree_tapbuf_size10_mem_7_ccff_tail[0]:6 0.0003370536

*END

*D_NET mux_tree_tapbuf_size8_2_sram[0] 0.002036059 //LENGTH 14.755 LUMPCC 0.0004720705 DR

*CONN
*I mem_bottom_ipin_6\/sky130_fd_sc_hd__dfxbp_1_0_:Q O *L 0 *C 23.305 4.420
*I mem_bottom_ipin_6\/sky130_fd_sc_hd__dfxbp_1_1_:D I *L 0.001695 *C 21.795 6.460
*I mux_bottom_ipin_6\/mux_l1_in_0_:S I *L 0.00357 *C 18.300 12.920
*N mux_tree_tapbuf_size8_2_sram[0]:3 *C 18.338 12.920
*N mux_tree_tapbuf_size8_2_sram[0]:4 *C 21.115 12.920
*N mux_tree_tapbuf_size8_2_sram[0]:5 *C 21.160 12.875
*N mux_tree_tapbuf_size8_2_sram[0]:6 *C 21.160 6.505
*N mux_tree_tapbuf_size8_2_sram[0]:7 *C 21.205 6.460
*N mux_tree_tapbuf_size8_2_sram[0]:8 *C 21.795 6.460
*N mux_tree_tapbuf_size8_2_sram[0]:9 *C 22.955 6.460
*N mux_tree_tapbuf_size8_2_sram[0]:10 *C 23.000 6.415
*N mux_tree_tapbuf_size8_2_sram[0]:11 *C 23.000 4.465
*N mux_tree_tapbuf_size8_2_sram[0]:12 *C 23.000 4.420
*N mux_tree_tapbuf_size8_2_sram[0]:13 *C 23.305 4.420

*CAP
0 mem_bottom_ipin_6\/sky130_fd_sc_hd__dfxbp_1_0_:Q 1e-06
1 mem_bottom_ipin_6\/sky130_fd_sc_hd__dfxbp_1_1_:D 1e-06
2 mux_bottom_ipin_6\/mux_l1_in_0_:S 1e-06
3 mux_tree_tapbuf_size8_2_sram[0]:3 0.0002029503
4 mux_tree_tapbuf_size8_2_sram[0]:4 0.0002029503
5 mux_tree_tapbuf_size8_2_sram[0]:5 0.0002479319
6 mux_tree_tapbuf_size8_2_sram[0]:6 0.0002479319
7 mux_tree_tapbuf_size8_2_sram[0]:7 5.979996e-05
8 mux_tree_tapbuf_size8_2_sram[0]:8 0.0001795334
9 mux_tree_tapbuf_size8_2_sram[0]:9 9.195331e-05
10 mux_tree_tapbuf_size8_2_sram[0]:10 0.0001203488
11 mux_tree_tapbuf_size8_2_sram[0]:11 0.0001203488
12 mux_tree_tapbuf_size8_2_sram[0]:12 4.552311e-05
13 mux_tree_tapbuf_size8_2_sram[0]:13 4.171656e-05
14 mux_tree_tapbuf_size8_2_sram[0]:5 chanx_left_in[8]:11 0.0001759591
15 mux_tree_tapbuf_size8_2_sram[0]:6 chanx_left_in[8]:10 0.0001759591
16 mux_tree_tapbuf_size8_2_sram[0]:10 chanx_left_in[8]:11 2.356302e-06
17 mux_tree_tapbuf_size8_2_sram[0]:11 chanx_left_in[8]:10 2.356302e-06
18 mux_tree_tapbuf_size8_2_sram[0]:3 mux_bottom_ipin_6/sky130_fd_sc_hd__mux2_1_0_X[0]:3 5.771985e-05
19 mux_tree_tapbuf_size8_2_sram[0]:4 mux_bottom_ipin_6/sky130_fd_sc_hd__mux2_1_0_X[0]:2 5.771985e-05

*RES
0 mem_bottom_ipin_6\/sky130_fd_sc_hd__dfxbp_1_0_:Q mux_tree_tapbuf_size8_2_sram[0]:13 0.152
1 mux_tree_tapbuf_size8_2_sram[0]:3 mux_bottom_ipin_6\/mux_l1_in_0_:S 0.152
2 mux_tree_tapbuf_size8_2_sram[0]:4 mux_tree_tapbuf_size8_2_sram[0]:3 0.00247991
3 mux_tree_tapbuf_size8_2_sram[0]:5 mux_tree_tapbuf_size8_2_sram[0]:4 0.0045
4 mux_tree_tapbuf_size8_2_sram[0]:7 mux_tree_tapbuf_size8_2_sram[0]:6 0.0045
5 mux_tree_tapbuf_size8_2_sram[0]:6 mux_tree_tapbuf_size8_2_sram[0]:5 0.0056875
6 mux_tree_tapbuf_size8_2_sram[0]:8 mem_bottom_ipin_6\/sky130_fd_sc_hd__dfxbp_1_1_:D 0.152
7 mux_tree_tapbuf_size8_2_sram[0]:8 mux_tree_tapbuf_size8_2_sram[0]:7 0.0005267857
8 mux_tree_tapbuf_size8_2_sram[0]:9 mux_tree_tapbuf_size8_2_sram[0]:8 0.001035714
9 mux_tree_tapbuf_size8_2_sram[0]:10 mux_tree_tapbuf_size8_2_sram[0]:9 0.0045
10 mux_tree_tapbuf_size8_2_sram[0]:12 mux_tree_tapbuf_size8_2_sram[0]:11 0.0045
11 mux_tree_tapbuf_size8_2_sram[0]:11 mux_tree_tapbuf_size8_2_sram[0]:10 0.001741071
12 mux_tree_tapbuf_size8_2_sram[0]:13 mux_tree_tapbuf_size8_2_sram[0]:12 0.0001657609

*END

*D_NET mux_tree_tapbuf_size8_3_sram[2] 0.002997802 //LENGTH 22.215 LUMPCC 0.0005084292 DR

*CONN
*I mem_bottom_ipin_7\/sky130_fd_sc_hd__dfxbp_1_2_:Q O *L 0 *C 40.160 38.760
*I mux_bottom_ipin_7\/mux_l3_in_1_:S I *L 0.00357 *C 31.640 44.880
*I mem_bottom_ipin_7\/sky130_fd_sc_hd__dfxbp_1_3_:D I *L 0.001695 *C 31.455 37.060
*I mux_bottom_ipin_7\/mux_l3_in_0_:S I *L 0.00357 *C 35.520 41.480
*N mux_tree_tapbuf_size8_3_sram[2]:4 *C 35.420 41.480
*N mux_tree_tapbuf_size8_3_sram[2]:5 *C 35.420 41.435
*N mux_tree_tapbuf_size8_3_sram[2]:6 *C 31.455 37.060
*N mux_tree_tapbuf_size8_3_sram[2]:7 *C 31.640 44.880
*N mux_tree_tapbuf_size8_3_sram[2]:8 *C 31.740 44.835
*N mux_tree_tapbuf_size8_3_sram[2]:9 *C 31.740 37.105
*N mux_tree_tapbuf_size8_3_sram[2]:10 *C 31.785 37.060
*N mux_tree_tapbuf_size8_3_sram[2]:11 *C 35.375 37.060
*N mux_tree_tapbuf_size8_3_sram[2]:12 *C 35.420 37.105
*N mux_tree_tapbuf_size8_3_sram[2]:13 *C 35.420 38.760
*N mux_tree_tapbuf_size8_3_sram[2]:14 *C 35.465 38.760
*N mux_tree_tapbuf_size8_3_sram[2]:15 *C 40.123 38.760

*CAP
0 mem_bottom_ipin_7\/sky130_fd_sc_hd__dfxbp_1_2_:Q 1e-06
1 mux_bottom_ipin_7\/mux_l3_in_1_:S 1e-06
2 mem_bottom_ipin_7\/sky130_fd_sc_hd__dfxbp_1_3_:D 1e-06
3 mux_bottom_ipin_7\/mux_l3_in_0_:S 1e-06
4 mux_tree_tapbuf_size8_3_sram[2]:4 3.540149e-05
5 mux_tree_tapbuf_size8_3_sram[2]:5 0.0001193962
6 mux_tree_tapbuf_size8_3_sram[2]:6 4.978734e-05
7 mux_tree_tapbuf_size8_3_sram[2]:7 3.053088e-05
8 mux_tree_tapbuf_size8_3_sram[2]:8 0.0004452034
9 mux_tree_tapbuf_size8_3_sram[2]:9 0.0004452034
10 mux_tree_tapbuf_size8_3_sram[2]:10 0.0002749605
11 mux_tree_tapbuf_size8_3_sram[2]:11 0.0002537218
12 mux_tree_tapbuf_size8_3_sram[2]:12 0.0001186548
13 mux_tree_tapbuf_size8_3_sram[2]:13 0.0002731894
14 mux_tree_tapbuf_size8_3_sram[2]:14 0.0002196617
15 mux_tree_tapbuf_size8_3_sram[2]:15 0.0002196617
16 mux_tree_tapbuf_size8_3_sram[2]:15 mux_tree_tapbuf_size8_3_sram[1]:25 2.270978e-05
17 mux_tree_tapbuf_size8_3_sram[2]:15 mux_tree_tapbuf_size8_3_sram[1]:26 0.0001653184
18 mux_tree_tapbuf_size8_3_sram[2]:14 mux_tree_tapbuf_size8_3_sram[1]:6 2.270978e-05
19 mux_tree_tapbuf_size8_3_sram[2]:14 mux_tree_tapbuf_size8_3_sram[1]:25 0.0001653184
20 mux_tree_tapbuf_size8_3_sram[2]:13 mux_tree_tapbuf_size8_3_sram[1]:24 6.618643e-05
21 mux_tree_tapbuf_size8_3_sram[2]:5 mux_tree_tapbuf_size8_3_sram[1]:23 6.618643e-05

*RES
0 mem_bottom_ipin_7\/sky130_fd_sc_hd__dfxbp_1_2_:Q mux_tree_tapbuf_size8_3_sram[2]:15 0.152
1 mux_tree_tapbuf_size8_3_sram[2]:15 mux_tree_tapbuf_size8_3_sram[2]:14 0.004158482
2 mux_tree_tapbuf_size8_3_sram[2]:14 mux_tree_tapbuf_size8_3_sram[2]:13 0.0045
3 mux_tree_tapbuf_size8_3_sram[2]:13 mux_tree_tapbuf_size8_3_sram[2]:12 0.001477678
4 mux_tree_tapbuf_size8_3_sram[2]:13 mux_tree_tapbuf_size8_3_sram[2]:5 0.002388393
5 mux_tree_tapbuf_size8_3_sram[2]:10 mux_tree_tapbuf_size8_3_sram[2]:9 0.0045
6 mux_tree_tapbuf_size8_3_sram[2]:10 mux_tree_tapbuf_size8_3_sram[2]:6 0.0001793478
7 mux_tree_tapbuf_size8_3_sram[2]:9 mux_tree_tapbuf_size8_3_sram[2]:8 0.006901786
8 mux_tree_tapbuf_size8_3_sram[2]:7 mux_bottom_ipin_7\/mux_l3_in_1_:S 0.152
9 mux_tree_tapbuf_size8_3_sram[2]:8 mux_tree_tapbuf_size8_3_sram[2]:7 0.0045
10 mux_tree_tapbuf_size8_3_sram[2]:6 mem_bottom_ipin_7\/sky130_fd_sc_hd__dfxbp_1_3_:D 0.152
11 mux_tree_tapbuf_size8_3_sram[2]:11 mux_tree_tapbuf_size8_3_sram[2]:10 0.003205357
12 mux_tree_tapbuf_size8_3_sram[2]:12 mux_tree_tapbuf_size8_3_sram[2]:11 0.0045
13 mux_tree_tapbuf_size8_3_sram[2]:4 mux_bottom_ipin_7\/mux_l3_in_0_:S 0.152
14 mux_tree_tapbuf_size8_3_sram[2]:5 mux_tree_tapbuf_size8_3_sram[2]:4 0.0045

*END

*D_NET mux_tree_tapbuf_size8_4_sram[3] 0.002188946 //LENGTH 15.730 LUMPCC 0.0001013831 DR

*CONN
*I mem_bottom_ipin_10\/sky130_fd_sc_hd__dfxbp_1_3_:Q O *L 0 *C 35.265 28.220
*I mem_bottom_ipin_10\/FTB_14__53:A I *L 0.001776 *C 34.040 25.840
*I mux_bottom_ipin_10\/mux_l4_in_0_:S I *L 0.00357 *C 24.940 29.240
*N mux_tree_tapbuf_size8_4_sram[3]:3 *C 24.840 29.240
*N mux_tree_tapbuf_size8_4_sram[3]:4 *C 24.840 29.195
*N mux_tree_tapbuf_size8_4_sram[3]:5 *C 24.840 27.925
*N mux_tree_tapbuf_size8_4_sram[3]:6 *C 24.885 27.880
*N mux_tree_tapbuf_size8_4_sram[3]:7 *C 33.580 27.880
*N mux_tree_tapbuf_size8_4_sram[3]:8 *C 33.580 28.220
*N mux_tree_tapbuf_size8_4_sram[3]:9 *C 34.040 25.840
*N mux_tree_tapbuf_size8_4_sram[3]:10 *C 34.040 25.885
*N mux_tree_tapbuf_size8_4_sram[3]:11 *C 34.040 28.175
*N mux_tree_tapbuf_size8_4_sram[3]:12 *C 34.040 28.220
*N mux_tree_tapbuf_size8_4_sram[3]:13 *C 35.227 28.220

*CAP
0 mem_bottom_ipin_10\/sky130_fd_sc_hd__dfxbp_1_3_:Q 1e-06
1 mem_bottom_ipin_10\/FTB_14__53:A 1e-06
2 mux_bottom_ipin_10\/mux_l4_in_0_:S 1e-06
3 mux_tree_tapbuf_size8_4_sram[3]:3 3.524751e-05
4 mux_tree_tapbuf_size8_4_sram[3]:4 9.925695e-05
5 mux_tree_tapbuf_size8_4_sram[3]:5 9.925695e-05
6 mux_tree_tapbuf_size8_4_sram[3]:6 0.0005837443
7 mux_tree_tapbuf_size8_4_sram[3]:7 0.0006068694
8 mux_tree_tapbuf_size8_4_sram[3]:8 5.925676e-05
9 mux_tree_tapbuf_size8_4_sram[3]:9 3.213726e-05
10 mux_tree_tapbuf_size8_4_sram[3]:10 0.0001571865
11 mux_tree_tapbuf_size8_4_sram[3]:11 0.0001571865
12 mux_tree_tapbuf_size8_4_sram[3]:12 0.000161024
13 mux_tree_tapbuf_size8_4_sram[3]:13 9.339683e-05
14 mux_tree_tapbuf_size8_4_sram[3]:6 mux_bottom_ipin_10/sky130_fd_sc_hd__mux2_1_6_X[0]:2 5.069157e-05
15 mux_tree_tapbuf_size8_4_sram[3]:7 mux_bottom_ipin_10/sky130_fd_sc_hd__mux2_1_6_X[0]:3 5.069157e-05

*RES
0 mem_bottom_ipin_10\/sky130_fd_sc_hd__dfxbp_1_3_:Q mux_tree_tapbuf_size8_4_sram[3]:13 0.152
1 mux_tree_tapbuf_size8_4_sram[3]:9 mem_bottom_ipin_10\/FTB_14__53:A 0.152
2 mux_tree_tapbuf_size8_4_sram[3]:10 mux_tree_tapbuf_size8_4_sram[3]:9 0.0045
3 mux_tree_tapbuf_size8_4_sram[3]:12 mux_tree_tapbuf_size8_4_sram[3]:11 0.0045
4 mux_tree_tapbuf_size8_4_sram[3]:12 mux_tree_tapbuf_size8_4_sram[3]:8 0.0004107142
5 mux_tree_tapbuf_size8_4_sram[3]:11 mux_tree_tapbuf_size8_4_sram[3]:10 0.002044643
6 mux_tree_tapbuf_size8_4_sram[3]:6 mux_tree_tapbuf_size8_4_sram[3]:5 0.0045
7 mux_tree_tapbuf_size8_4_sram[3]:5 mux_tree_tapbuf_size8_4_sram[3]:4 0.001133929
8 mux_tree_tapbuf_size8_4_sram[3]:3 mux_bottom_ipin_10\/mux_l4_in_0_:S 0.152
9 mux_tree_tapbuf_size8_4_sram[3]:4 mux_tree_tapbuf_size8_4_sram[3]:3 0.0045
10 mux_tree_tapbuf_size8_4_sram[3]:13 mux_tree_tapbuf_size8_4_sram[3]:12 0.001060268
11 mux_tree_tapbuf_size8_4_sram[3]:7 mux_tree_tapbuf_size8_4_sram[3]:6 0.007763393
12 mux_tree_tapbuf_size8_4_sram[3]:8 mux_tree_tapbuf_size8_4_sram[3]:7 0.0003035715

*END

*D_NET mux_tree_tapbuf_size8_6_sram[2] 0.002096631 //LENGTH 14.990 LUMPCC 0 DR

*CONN
*I mem_bottom_ipin_14\/sky130_fd_sc_hd__dfxbp_1_2_:Q O *L 0 *C 44.005 4.080
*I mem_bottom_ipin_14\/sky130_fd_sc_hd__dfxbp_1_3_:D I *L 0.001695 *C 39.275 6.460
*I mux_bottom_ipin_14\/mux_l3_in_1_:S I *L 0.00357 *C 42.220 8.840
*I mux_bottom_ipin_14\/mux_l3_in_0_:S I *L 0.00357 *C 46.360 8.840
*N mux_tree_tapbuf_size8_6_sram[2]:4 *C 46.323 8.840
*N mux_tree_tapbuf_size8_6_sram[2]:5 *C 42.258 8.840
*N mux_tree_tapbuf_size8_6_sram[2]:6 *C 44.160 8.840
*N mux_tree_tapbuf_size8_6_sram[2]:7 *C 44.160 8.795
*N mux_tree_tapbuf_size8_6_sram[2]:8 *C 39.312 6.460
*N mux_tree_tapbuf_size8_6_sram[2]:9 *C 44.115 6.460
*N mux_tree_tapbuf_size8_6_sram[2]:10 *C 44.160 6.460
*N mux_tree_tapbuf_size8_6_sram[2]:11 *C 44.160 4.125
*N mux_tree_tapbuf_size8_6_sram[2]:12 *C 44.160 4.080
*N mux_tree_tapbuf_size8_6_sram[2]:13 *C 44.005 4.080

*CAP
0 mem_bottom_ipin_14\/sky130_fd_sc_hd__dfxbp_1_2_:Q 1e-06
1 mem_bottom_ipin_14\/sky130_fd_sc_hd__dfxbp_1_3_:D 1e-06
2 mux_bottom_ipin_14\/mux_l3_in_1_:S 1e-06
3 mux_bottom_ipin_14\/mux_l3_in_0_:S 1e-06
4 mux_tree_tapbuf_size8_6_sram[2]:4 0.0001666375
5 mux_tree_tapbuf_size8_6_sram[2]:5 0.0001541557
6 mux_tree_tapbuf_size8_6_sram[2]:6 0.0003532248
7 mux_tree_tapbuf_size8_6_sram[2]:7 0.0001344677
8 mux_tree_tapbuf_size8_6_sram[2]:8 0.0003790541
9 mux_tree_tapbuf_size8_6_sram[2]:9 0.0003790541
10 mux_tree_tapbuf_size8_6_sram[2]:10 0.0002984327
11 mux_tree_tapbuf_size8_6_sram[2]:11 0.0001312384
12 mux_tree_tapbuf_size8_6_sram[2]:12 5.004571e-05
13 mux_tree_tapbuf_size8_6_sram[2]:13 4.632021e-05

*RES
0 mem_bottom_ipin_14\/sky130_fd_sc_hd__dfxbp_1_2_:Q mux_tree_tapbuf_size8_6_sram[2]:13 0.152
1 mux_tree_tapbuf_size8_6_sram[2]:6 mux_tree_tapbuf_size8_6_sram[2]:5 0.001698661
2 mux_tree_tapbuf_size8_6_sram[2]:6 mux_tree_tapbuf_size8_6_sram[2]:4 0.001930804
3 mux_tree_tapbuf_size8_6_sram[2]:7 mux_tree_tapbuf_size8_6_sram[2]:6 0.0045
4 mux_tree_tapbuf_size8_6_sram[2]:5 mux_bottom_ipin_14\/mux_l3_in_1_:S 0.152
5 mux_tree_tapbuf_size8_6_sram[2]:4 mux_bottom_ipin_14\/mux_l3_in_0_:S 0.152
6 mux_tree_tapbuf_size8_6_sram[2]:9 mux_tree_tapbuf_size8_6_sram[2]:8 0.004287947
7 mux_tree_tapbuf_size8_6_sram[2]:10 mux_tree_tapbuf_size8_6_sram[2]:9 0.0045
8 mux_tree_tapbuf_size8_6_sram[2]:10 mux_tree_tapbuf_size8_6_sram[2]:7 0.002084821
9 mux_tree_tapbuf_size8_6_sram[2]:8 mem_bottom_ipin_14\/sky130_fd_sc_hd__dfxbp_1_3_:D 0.152
10 mux_tree_tapbuf_size8_6_sram[2]:12 mux_tree_tapbuf_size8_6_sram[2]:11 0.0045
11 mux_tree_tapbuf_size8_6_sram[2]:11 mux_tree_tapbuf_size8_6_sram[2]:10 0.002084821
12 mux_tree_tapbuf_size8_6_sram[2]:13 mux_tree_tapbuf_size8_6_sram[2]:12 8.423914e-05

*END

*D_NET mux_tree_tapbuf_size8_mem_1_ccff_tail[0] 0.002708615 //LENGTH 22.450 LUMPCC 0.0001940189 DR

*CONN
*I mem_bottom_ipin_3\/FTB_11__50:X O *L 0 *C 41.860 49.640
*I mem_bottom_ipin_4\/sky130_fd_sc_hd__dfxbp_1_0_:D I *L 0.001695 *C 36.975 33.660
*N mux_tree_tapbuf_size8_mem_1_ccff_tail[0]:2 *C 37.003 33.638
*N mux_tree_tapbuf_size8_mem_1_ccff_tail[0]:3 *C 37.260 33.625
*N mux_tree_tapbuf_size8_mem_1_ccff_tail[0]:4 *C 37.260 33.320
*N mux_tree_tapbuf_size8_mem_1_ccff_tail[0]:5 *C 41.815 33.320
*N mux_tree_tapbuf_size8_mem_1_ccff_tail[0]:6 *C 41.860 33.365
*N mux_tree_tapbuf_size8_mem_1_ccff_tail[0]:7 *C 41.860 49.595
*N mux_tree_tapbuf_size8_mem_1_ccff_tail[0]:8 *C 41.860 49.640

*CAP
0 mem_bottom_ipin_3\/FTB_11__50:X 1e-06
1 mem_bottom_ipin_4\/sky130_fd_sc_hd__dfxbp_1_0_:D 1e-06
2 mux_tree_tapbuf_size8_mem_1_ccff_tail[0]:2 4.02667e-05
3 mux_tree_tapbuf_size8_mem_1_ccff_tail[0]:3 6.397123e-05
4 mux_tree_tapbuf_size8_mem_1_ccff_tail[0]:4 0.0003509275
5 mux_tree_tapbuf_size8_mem_1_ccff_tail[0]:5 0.000327223