*SPEF "1481-1998"
*DESIGN "cbx_1__0_"
*DATE "Mon Oct 26 23:03:32 2020"
*
*
*
*
*DIVIDER /
*DELIMITER :
*T_UNIT 1 NS
*C_UNIT 1 PF
*R_UNIT 1 KOHM
*L_UNIT 1 HENRY

// XY_UNIT 1 UM
// PARASITIC_TECH nominal at 25.000 degree

*PORTS
prog_clk[0] I *C 90.620 75.480
chanx_left_in[0] I *C 3.220 75.480
chanx_left_in[1] I *C 0.690 66.640
chanx_left_in[2] I *C 0.690 6.800
chanx_left_in[3] I *C 0.690 68.000
chanx_left_in[4] I *C 0.690 35.360
chanx_left_in[5] I *C 0.690 57.120
chanx_left_in[6] I *C 0.690 28.560
chanx_left_in[7] I *C 0.690 51.680
chanx_left_in[8] I *C 0.690 34.000
chanx_left_in[9] I *C 0.690 40.800
chanx_left_in[10] I *C 0.690 24.480
chanx_left_in[11] I *C 0.690 55.760
chanx_left_in[12] I *C 0.690 69.360
chanx_left_in[13] I *C 0.690 61.200
chanx_left_in[14] I *C 0.690 23.120
chanx_left_in[15] I *C 0.690 39.440
chanx_left_in[16] I *C 0.690 36.720
chanx_left_in[17] I *C 0.690 62.560
chanx_left_in[18] I *C 0.690 20.400
chanx_left_in[19] I *C 0.690 53.040
chanx_right_in[0] I *C 104.190 27.200
chanx_right_in[1] I *C 104.190 64.600
chanx_right_in[2] I *C 104.190 15.640
chanx_right_in[3] I *C 104.190 59.840
chanx_right_in[4] I *C 104.190 11.560
chanx_right_in[5] I *C 104.190 61.200
chanx_right_in[6] I *C 104.190 25.840
chanx_right_in[7] I *C 104.190 48.960
chanx_right_in[8] I *C 104.190 21.760
chanx_right_in[9] I *C 104.190 34.000
chanx_right_in[10] I *C 104.190 20.400
chanx_right_in[11] I *C 104.190 38.080
chanx_right_in[12] I *C 104.190 23.120
chanx_right_in[13] I *C 104.190 65.960
chanx_right_in[14] I *C 104.190 17.680
chanx_right_in[15] I *C 104.190 39.440
chanx_right_in[16] I *C 104.190 31.280
chanx_right_in[17] I *C 104.190 43.520
chanx_right_in[18] I *C 104.190 10.200
chanx_right_in[19] I *C 104.190 58.480
ccff_head[0] I *C 104.190 55.760
chanx_left_out[0] O *C 0.690 46.240
chanx_left_out[1] O *C 2.300 0.680
chanx_left_out[2] O *C 0.690 12.240
chanx_left_out[3] O *C 0.690 8.160
chanx_left_out[4] O *C 0.690 13.600
chanx_left_out[5] O *C 0.690 9.520
chanx_left_out[6] O *C 0.690 31.280
chanx_left_out[7] O *C 0.690 47.600
chanx_left_out[8] O *C 0.690 14.960
chanx_left_out[9] O *C 0.690 72.080
chanx_left_out[10] O *C 0.690 25.840
chanx_left_out[11] O *C 0.690 29.920
chanx_left_out[12] O *C 0.690 19.040
chanx_left_out[13] O *C 0.690 44.880
chanx_left_out[14] O *C 0.690 17.680
chanx_left_out[15] O *C 0.690 42.160
chanx_left_out[16] O *C 0.690 4.080
chanx_left_out[17] O *C 0.690 63.920
chanx_left_out[18] O *C 0.690 50.320
chanx_left_out[19] O *C 0.690 58.480
chanx_right_out[0] O *C 100.740 75.480
chanx_right_out[1] O *C 104.190 54.400
chanx_right_out[2] O *C 100.280 75.480
chanx_right_out[3] O *C 104.190 53.040
chanx_right_out[4] O *C 102.580 75.480
chanx_right_out[5] O *C 104.190 50.320
chanx_right_out[6] O *C 104.190 47.600
chanx_right_out[7] O *C 104.190 70.720
chanx_right_out[8] O *C 104.190 32.640
chanx_right_out[9] O *C 104.190 72.080
chanx_right_out[10] O *C 101.660 75.480
chanx_right_out[11] O *C 104.190 69.360
chanx_right_out[12] O *C 104.190 36.720
chanx_right_out[13] O *C 104.190 44.880
chanx_right_out[14] O *C 104.190 6.800
chanx_right_out[15] O *C 104.190 42.160
chanx_right_out[16] O *C 104.190 28.560
chanx_right_out[17] O *C 102.580 0.680
chanx_right_out[18] O *C 104.190 5.440
chanx_right_out[19] O *C 104.190 4.080
top_grid_pin_16_[0] O *C 34.040 75.480
top_grid_pin_17_[0] O *C 35.880 75.480
top_grid_pin_18_[0] O *C 34.960 75.480
top_grid_pin_19_[0] O *C 36.800 75.480
top_grid_pin_20_[0] O *C 57.500 75.480
top_grid_pin_21_[0] O *C 16.100 75.480
top_grid_pin_22_[0] O *C 33.120 75.480
top_grid_pin_23_[0] O *C 15.180 75.480
top_grid_pin_24_[0] O *C 2.300 75.480
top_grid_pin_25_[0] O *C 12.420 75.480
top_grid_pin_26_[0] O *C 13.340 75.480
top_grid_pin_27_[0] O *C 14.260 75.480
top_grid_pin_28_[0] O *C 73.600 75.480
top_grid_pin_29_[0] O *C 74.520 75.480
top_grid_pin_30_[0] O *C 76.360 75.480
top_grid_pin_31_[0] O *C 75.440 75.480
bottom_grid_pin_0_[0] O *C 97.520 0.680
ccff_tail[0] O *C 57.500 0.680
VDD I *C 52.440 38.080
VSS I *C 52.440 38.080

*D_NET chanx_left_in[0] 0.02919863 //LENGTH 213.180 LUMPCC 0.008279803 DR

*CONN
*P chanx_left_in[0] I *L 0.29796 *C 3.220 74.835
*I mux_bottom_ipin_10\/mux_l1_in_0_:A1 I *L 0.00198 *C 18.400 30.940
*I mux_bottom_ipin_8\/mux_l1_in_0_:A1 I *L 0.00198 *C 23.825 28.900
*I mux_bottom_ipin_2\/mux_l1_in_0_:A1 I *L 0.00198 *C 37.260 28.900
*I mux_bottom_ipin_4\/mux_l1_in_0_:A1 I *L 0.00198 *C 62.200 25.500
*I mux_bottom_ipin_14\/mux_l1_in_0_:A1 I *L 0.00198 *C 71.400 25.500
*I mux_bottom_ipin_0\/mux_l1_in_0_:A1 I *L 0.00198 *C 90.985 28.900
*I mux_top_ipin_0\/mux_l1_in_0_:A1 I *L 0.00198 *C 95.220 28.900
*I BUFT_RR_58:A I *L 0.001776 *C 80.040 72.080
*I mux_bottom_ipin_6\/mux_l1_in_0_:A1 I *L 0.00198 *C 54.645 23.460
*I mux_bottom_ipin_12\/mux_l1_in_0_:A1 I *L 0.00198 *C 53.000 28.900
*N chanx_left_in[0]:11 *C 22.600 32.640
*N chanx_left_in[0]:12 *C 53.038 28.900
*N chanx_left_in[0]:13 *C 53.360 28.900
*N chanx_left_in[0]:14 *C 54.645 23.460
*N chanx_left_in[0]:15 *C 54.740 23.505
*N chanx_left_in[0]:16 *C 80.002 72.080
*N chanx_left_in[0]:17 *C 78.705 72.080
*N chanx_left_in[0]:18 *C 78.660 72.035
*N chanx_left_in[0]:19 *C 78.660 44.258
*N chanx_left_in[0]:20 *C 78.653 44.200
*N chanx_left_in[0]:21 *C 76.368 44.200
*N chanx_left_in[0]:22 *C 76.360 44.143
*N chanx_left_in[0]:23 *C 95.183 28.900
*N chanx_left_in[0]:24 *C 90.985 28.900
*N chanx_left_in[0]:25 *C 88.825 28.900
*N chanx_left_in[0]:26 *C 88.780 28.855
*N chanx_left_in[0]:27 *C 88.780 26.565
*N chanx_left_in[0]:28 *C 88.735 26.520
*N chanx_left_in[0]:29 *C 76.405 26.520
*N chanx_left_in[0]:30 *C 76.360 26.520
*N chanx_left_in[0]:31 *C 76.360 25.218
*N chanx_left_in[0]:32 *C 76.353 25.160
*N chanx_left_in[0]:33 *C 71.300 25.500
*N chanx_left_in[0]:34 *C 71.300 25.500
*N chanx_left_in[0]:35 *C 71.300 25.160
*N chanx_left_in[0]:36 *C 71.300 25.160
*N chanx_left_in[0]:37 *C 62.100 25.500
*N chanx_left_in[0]:38 *C 62.100 25.500
*N chanx_left_in[0]:39 *C 62.100 25.160
*N chanx_left_in[0]:40 *C 62.100 25.160
*N chanx_left_in[0]:41 *C 54.748 25.160
*N chanx_left_in[0]:42 *C 54.740 25.160
*N chanx_left_in[0]:43 *C 54.740 28.515
*N chanx_left_in[0]:44 *C 54.695 28.560
*N chanx_left_in[0]:45 *C 53.360 28.560
*N chanx_left_in[0]:46 *C 51.105 28.560
*N chanx_left_in[0]:47 *C 51.060 28.560
*N chanx_left_in[0]:48 *C 51.053 28.560
*N chanx_left_in[0]:49 *C 36.808 28.560
*N chanx_left_in[0]:50 *C 36.800 28.560
*N chanx_left_in[0]:51 *C 36.800 28.560
*N chanx_left_in[0]:52 *C 37.223 28.900
*N chanx_left_in[0]:53 *C 36.800 28.900
*N chanx_left_in[0]:54 *C 23.965 28.900
*N chanx_left_in[0]:55 *C 23.920 28.900
*N chanx_left_in[0]:56 *C 23.000 28.900
*N chanx_left_in[0]:57 *C 18.438 30.940
*N chanx_left_in[0]:58 *C 18.860 30.940
*N chanx_left_in[0]:59 *C 18.860 31.960
*N chanx_left_in[0]:60 *C 22.955 31.960
*N chanx_left_in[0]:61 *C 23.000 31.960
*N chanx_left_in[0]:62 *C 23.000 32.583
*N chanx_left_in[0]:63 *C 23.000 32.640
*N chanx_left_in[0]:64 *C 23.000 32.648
*N chanx_left_in[0]:65 *C 23.000 74.112
*N chanx_left_in[0]:66 *C 23.000 74.125
*N chanx_left_in[0]:67 *C 23.000 74.800
*N chanx_left_in[0]:68 *C 10.580 74.800
*N chanx_left_in[0]:69 *C 10.580 74.120
*N chanx_left_in[0]:70 *C 3.228 74.120
*N chanx_left_in[0]:71 *C 3.220 74.178

*CAP
0 chanx_left_in[0] 5.096326e-05
1 mux_bottom_ipin_10\/mux_l1_in_0_:A1 1e-06
2 mux_bottom_ipin_8\/mux_l1_in_0_:A1 1e-06
3 mux_bottom_ipin_2\/mux_l1_in_0_:A1 1e-06
4 mux_bottom_ipin_4\/mux_l1_in_0_:A1 1e-06
5 mux_bottom_ipin_14\/mux_l1_in_0_:A1 1e-06
6 mux_bottom_ipin_0\/mux_l1_in_0_:A1 1e-06
7 mux_top_ipin_0\/mux_l1_in_0_:A1 1e-06
8 BUFT_RR_58:A 1e-06
9 mux_bottom_ipin_6\/mux_l1_in_0_:A1 1e-06
10 mux_bottom_ipin_12\/mux_l1_in_0_:A1 1e-06
11 chanx_left_in[0]:11 9.203509e-05
12 chanx_left_in[0]:12 5.029135e-05
13 chanx_left_in[0]:13 7.482899e-05
14 chanx_left_in[0]:14 2.945022e-05
15 chanx_left_in[0]:15 8.549642e-05
16 chanx_left_in[0]:16 8.753609e-05
17 chanx_left_in[0]:17 8.753609e-05
18 chanx_left_in[0]:18 0.001397279
19 chanx_left_in[0]:19 0.001397279
20 chanx_left_in[0]:20 0.0001733458
21 chanx_left_in[0]:21 0.0001733458
22 chanx_left_in[0]:22 0.0006630715
23 chanx_left_in[0]:23 0.0003186979
24 chanx_left_in[0]:24 0.0004702128
25 chanx_left_in[0]:25 0.0001219384
26 chanx_left_in[0]:26 0.0001606872
27 chanx_left_in[0]:27 0.0001606872
28 chanx_left_in[0]:28 0.0007534207
29 chanx_left_in[0]:29 0.0007534207
30 chanx_left_in[0]:30 0.0007722782
31 chanx_left_in[0]:31 7.475312e-05
32 chanx_left_in[0]:32 0.0003927661
33 chanx_left_in[0]:33 3.269818e-05
34 chanx_left_in[0]:34 5.331514e-05
35 chanx_left_in[0]:35 5.729255e-05
36 chanx_left_in[0]:36 0.0005910235
37 chanx_left_in[0]:37 3.126141e-05
38 chanx_left_in[0]:38 5.272171e-05
39 chanx_left_in[0]:39 5.679348e-05
40 chanx_left_in[0]:40 0.0004168927
41 chanx_left_in[0]:41 0.0002186355
42 chanx_left_in[0]:42 0.0002830867
43 chanx_left_in[0]:43 0.0001603603
44 chanx_left_in[0]:44 8.967426e-05
45 chanx_left_in[0]:45 0.0002553121
46 chanx_left_in[0]:46 0.0001411002
47 chanx_left_in[0]:47 3.953676e-05
48 chanx_left_in[0]:48 0.0004720385
49 chanx_left_in[0]:49 0.0004720385
50 chanx_left_in[0]:50 4.065167e-05
51 chanx_left_in[0]:51 5.875579e-05
52 chanx_left_in[0]:52 3.900648e-05
53 chanx_left_in[0]:53 0.0008853755
54 chanx_left_in[0]:54 0.0008190294
55 chanx_left_in[0]:55 9.162964e-05
56 chanx_left_in[0]:56 0.0002383304
57 chanx_left_in[0]:57 5.810047e-05
58 chanx_left_in[0]:58 0.0001199983
59 chanx_left_in[0]:59 0.0003647977
60 chanx_left_in[0]:60 0.0003028998
61 chanx_left_in[0]:61 0.000248575
62 chanx_left_in[0]:62 3.574312e-05
63 chanx_left_in[0]:63 9.203509e-05
64 chanx_left_in[0]:64 0.001649938
65 chanx_left_in[0]:65 0.001649938
66 chanx_left_in[0]:66 4.776618e-05
67 chanx_left_in[0]:67 0.0007497887
68 chanx_left_in[0]:68 0.0007465749
69 chanx_left_in[0]:69 0.0004491908
70 chanx_left_in[0]:70 0.0004046384
71 chanx_left_in[0]:71 5.096326e-05
72 chanx_left_in[0]:19 chanx_left_in[7]:14 0.0003507744
73 chanx_left_in[0]:18 chanx_left_in[7]:13 0.0003507744
74 chanx_left_in[0]:54 chanx_left_in[12]:22 6.759408e-06
75 chanx_left_in[0]:49 chanx_left_in[12]:22 0.0008133516
76 chanx_left_in[0]:48 chanx_left_in[12]:21 0.0008133516
77 chanx_left_in[0]:53 chanx_left_in[12]:21 6.759408e-06
78 chanx_left_in[0]:54 chanx_left_in[16]:30 5.129997e-06
79 chanx_left_in[0]:55 chanx_left_in[16]:29 6.499944e-06
80 chanx_left_in[0]:49 chanx_left_in[16]:30 0.0001325899
81 chanx_left_in[0]:48 chanx_left_in[16]:29 0.0001325899
82 chanx_left_in[0]:29 chanx_left_in[16]:20 3.872662e-05
83 chanx_left_in[0]:29 chanx_left_in[16]:18 6.994542e-05
84 chanx_left_in[0]:29 chanx_left_in[16]:13 2.01765e-06
85 chanx_left_in[0]:28 chanx_left_in[16]:12 2.01765e-06
86 chanx_left_in[0]:28 chanx_left_in[16]:17 6.994542e-05
87 chanx_left_in[0]:28 chanx_left_in[16]:19 3.872662e-05
88 chanx_left_in[0]:53 chanx_left_in[16]:29 5.129997e-06
89 chanx_left_in[0]:56 chanx_left_in[16]:30 6.499944e-06
90 chanx_left_in[0]:41 chanx_right_in[4]:11 0.0001120372
91 chanx_left_in[0]:41 chanx_right_in[4]:12 4.29697e-05
92 chanx_left_in[0]:32 chanx_right_in[4]:18 8.605317e-05
93 chanx_left_in[0]:40 chanx_right_in[4]:17 0.0001683224
94 chanx_left_in[0]:40 chanx_right_in[4]:12 0.0001984902
95 chanx_left_in[0]:36 chanx_right_in[4]:18 0.0001253527
96 chanx_left_in[0]:36 chanx_right_in[4]:17 0.0001725062
97 chanx_left_in[0]:41 chanx_right_in[12]:25 0.0004061351
98 chanx_left_in[0]:32 chanx_right_in[12]:26 3.428483e-05
99 chanx_left_in[0]:40 chanx_right_in[12]:25 0.0005127228
100 chanx_left_in[0]:40 chanx_right_in[12]:26 0.0004061351
101 chanx_left_in[0]:35 chanx_right_in[12]:27 1.611402e-07
102 chanx_left_in[0]:36 chanx_right_in[12]:25 3.428483e-05
103 chanx_left_in[0]:36 chanx_right_in[12]:26 0.0005127228
104 chanx_left_in[0]:34 chanx_right_in[12]:28 1.611402e-07
105 chanx_left_in[0]:42 mux_tree_tapbuf_size10_mem_2_ccff_tail[0]:5 3.991769e-05
106 chanx_left_in[0]:42 mux_tree_tapbuf_size10_mem_2_ccff_tail[0]:4 2.052841e-05
107 chanx_left_in[0]:43 mux_tree_tapbuf_size10_mem_2_ccff_tail[0]:4 3.991769e-05
108 chanx_left_in[0]:15 mux_tree_tapbuf_size10_mem_2_ccff_tail[0]:5 2.052841e-05
109 chanx_left_in[0]:22 mux_tree_tapbuf_size8_6_sram[0]:11 0.0001394194
110 chanx_left_in[0]:30 mux_tree_tapbuf_size8_6_sram[0]:10 0.0001394194
111 chanx_left_in[0]:30 mux_tree_tapbuf_size8_6_sram[0]:11 1.068636e-06
112 chanx_left_in[0]:31 mux_tree_tapbuf_size8_6_sram[0]:10 1.068636e-06
113 chanx_left_in[0]:22 mux_tree_tapbuf_size8_6_sram[3]:8 0.0001231357
114 chanx_left_in[0]:22 mux_tree_tapbuf_size8_6_sram[3]:11 9.911638e-07
115 chanx_left_in[0]:22 mux_tree_tapbuf_size8_6_sram[3]:10 8.346643e-07
116 chanx_left_in[0]:30 mux_tree_tapbuf_size8_6_sram[3]:5 8.346643e-07
117 chanx_left_in[0]:30 mux_tree_tapbuf_size8_6_sram[3]:9 0.0001231357
118 chanx_left_in[0]:30 mux_tree_tapbuf_size8_6_sram[3]:10 9.911638e-07
119 chanx_left_in[0]:60 mux_tree_tapbuf_size8_mem_3_ccff_tail[0]:4 1.355525e-05
120 chanx_left_in[0]:61 mux_tree_tapbuf_size8_mem_3_ccff_tail[0]:5 9.483726e-06
121 chanx_left_in[0]:61 mux_tree_tapbuf_size8_mem_3_ccff_tail[0]:6 5.481922e-06
122 chanx_left_in[0]:62 mux_tree_tapbuf_size8_mem_3_ccff_tail[0]:6 9.483726e-06
123 chanx_left_in[0]:64 mux_tree_tapbuf_size8_mem_3_ccff_tail[0]:9 0.0003538138
124 chanx_left_in[0]:65 mux_tree_tapbuf_size8_mem_3_ccff_tail[0]:10 0.0003538138
125 chanx_left_in[0]:59 mux_tree_tapbuf_size8_mem_3_ccff_tail[0]:3 1.355525e-05
126 chanx_left_in[0]:56 mux_tree_tapbuf_size8_mem_3_ccff_tail[0]:5 5.481922e-06
127 chanx_left_in[0]:25 mux_bottom_ipin_0/sky130_fd_sc_hd__mux2_1_0_X[0]:7 6.226274e-05
128 chanx_left_in[0]:23 mux_bottom_ipin_0/sky130_fd_sc_hd__mux2_1_0_X[0]:6 2.579938e-05
129 chanx_left_in[0]:24 mux_bottom_ipin_0/sky130_fd_sc_hd__mux2_1_0_X[0]:6 6.226274e-05
130 chanx_left_in[0]:24 mux_bottom_ipin_0/sky130_fd_sc_hd__mux2_1_0_X[0]:7 2.579938e-05
131 chanx_left_in[0]:64 mux_bottom_ipin_11/sky130_fd_sc_hd__mux2_1_7_X[0]:9 0.0004431389
132 chanx_left_in[0]:65 mux_bottom_ipin_11/sky130_fd_sc_hd__mux2_1_7_X[0]:8 0.0004431389
133 chanx_left_in[0]:22 mux_bottom_ipin_14/sky130_fd_sc_hd__mux2_1_6_X[0]:4 5.295566e-05
134 chanx_left_in[0]:30 mux_bottom_ipin_14/sky130_fd_sc_hd__mux2_1_6_X[0]:5 5.295566e-05
135 chanx_left_in[0]:30 mux_bottom_ipin_14/sky130_fd_sc_hd__mux2_1_6_X[0]:4 1.555074e-05
136 chanx_left_in[0]:31 mux_bottom_ipin_14/sky130_fd_sc_hd__mux2_1_6_X[0]:5 1.555074e-05

*RES
0 chanx_left_in[0] chanx_left_in[0]:71 0.0005870535
1 chanx_left_in[0]:57 mux_bottom_ipin_10\/mux_l1_in_0_:A1 0.152
2 chanx_left_in[0]:60 chanx_left_in[0]:59 0.00365625
3 chanx_left_in[0]:61 chanx_left_in[0]:60 0.0045
4 chanx_left_in[0]:61 chanx_left_in[0]:56 0.002732143
5 chanx_left_in[0]:54 mux_bottom_ipin_8\/mux_l1_in_0_:A1 0.152
6 chanx_left_in[0]:54 chanx_left_in[0]:53 0.01145982
7 chanx_left_in[0]:55 chanx_left_in[0]:54 0.0045
8 chanx_left_in[0]:51 chanx_left_in[0]:50 0.0045
9 chanx_left_in[0]:50 chanx_left_in[0]:49 0.00341
10 chanx_left_in[0]:49 chanx_left_in[0]:48 0.002231717
11 chanx_left_in[0]:47 chanx_left_in[0]:46 0.0045
12 chanx_left_in[0]:48 chanx_left_in[0]:47 0.00341
13 chanx_left_in[0]:46 chanx_left_in[0]:45 0.002013393
14 chanx_left_in[0]:22 chanx_left_in[0]:21 0.00341
15 chanx_left_in[0]:21 chanx_left_in[0]:20 0.0003579833
16 chanx_left_in[0]:19 chanx_left_in[0]:18 0.02480134
17 chanx_left_in[0]:20 chanx_left_in[0]:19 0.00341
18 chanx_left_in[0]:17 chanx_left_in[0]:16 0.001158482
19 chanx_left_in[0]:18 chanx_left_in[0]:17 0.0045
20 chanx_left_in[0]:16 BUFT_RR_58:A 0.152
21 chanx_left_in[0]:29 chanx_left_in[0]:28 0.01100893
22 chanx_left_in[0]:30 chanx_left_in[0]:29 0.0045
23 chanx_left_in[0]:30 chanx_left_in[0]:22 0.01573438
24 chanx_left_in[0]:28 chanx_left_in[0]:27 0.0045
25 chanx_left_in[0]:27 chanx_left_in[0]:26 0.002044643
26 chanx_left_in[0]:25 chanx_left_in[0]:24 0.001928571
27 chanx_left_in[0]:26 chanx_left_in[0]:25 0.0045
28 chanx_left_in[0]:42 chanx_left_in[0]:41 0.00341
29 chanx_left_in[0]:42 chanx_left_in[0]:15 0.001477679
30 chanx_left_in[0]:41 chanx_left_in[0]:40 0.001151892
31 chanx_left_in[0]:62 chanx_left_in[0]:61 0.0005558036
32 chanx_left_in[0]:63 chanx_left_in[0]:62 0.00341
33 chanx_left_in[0]:63 chanx_left_in[0]:11 5.69697e-05
34 chanx_left_in[0]:64 chanx_left_in[0]:63 0.00341
35 chanx_left_in[0]:66 chanx_left_in[0]:65 0.00341
36 chanx_left_in[0]:65 chanx_left_in[0]:64 0.006496183
37 chanx_left_in[0]:71 chanx_left_in[0]:70 0.00341
38 chanx_left_in[0]:70 chanx_left_in[0]:69 0.001151892
39 chanx_left_in[0]:44 chanx_left_in[0]:43 0.0045
40 chanx_left_in[0]:43 chanx_left_in[0]:42 0.002995536
41 chanx_left_in[0]:23 mux_top_ipin_0\/mux_l1_in_0_:A1 0.152
42 chanx_left_in[0]:31 chanx_left_in[0]:30 0.001162947
43 chanx_left_in[0]:32 chanx_left_in[0]:31 0.00341
44 chanx_left_in[0]:14 mux_bottom_ipin_6\/mux_l1_in_0_:A1 0.152
45 chanx_left_in[0]:15 chanx_left_in[0]:14 0.0045
46 chanx_left_in[0]:39 chanx_left_in[0]:38 0.0001634616
47 chanx_left_in[0]:40 chanx_left_in[0]:39 0.00341
48 chanx_left_in[0]:40 chanx_left_in[0]:36 0.001441333
49 chanx_left_in[0]:37 mux_bottom_ipin_4\/mux_l1_in_0_:A1 0.152
50 chanx_left_in[0]:38 chanx_left_in[0]:37 0.0045
51 chanx_left_in[0]:12 mux_bottom_ipin_12\/mux_l1_in_0_:A1 0.152
52 chanx_left_in[0]:35 chanx_left_in[0]:34 0.0001634615
53 chanx_left_in[0]:36 chanx_left_in[0]:35 0.00341
54 chanx_left_in[0]:36 chanx_left_in[0]:32 0.0007915584
55 chanx_left_in[0]:33 mux_bottom_ipin_14\/mux_l1_in_0_:A1 0.152
56 chanx_left_in[0]:34 chanx_left_in[0]:33 0.0045
57 chanx_left_in[0]:52 mux_bottom_ipin_2\/mux_l1_in_0_:A1 0.152
58 chanx_left_in[0]:24 mux_bottom_ipin_0\/mux_l1_in_0_:A1 0.152
59 chanx_left_in[0]:24 chanx_left_in[0]:23 0.003747768
60 chanx_left_in[0]:58 chanx_left_in[0]:57 0.0003772322
61 chanx_left_in[0]:59 chanx_left_in[0]:58 0.0009107143
62 chanx_left_in[0]:53 chanx_left_in[0]:52 0.0003772322
63 chanx_left_in[0]:53 chanx_left_in[0]:51 0.0003035715
64 chanx_left_in[0]:45 chanx_left_in[0]:44 0.001191964
65 chanx_left_in[0]:45 chanx_left_in[0]:13 0.0003035715
66 chanx_left_in[0]:13 chanx_left_in[0]:12 0.0002879465
67 chanx_left_in[0]:56 chanx_left_in[0]:55 0.0008214285
68 chanx_left_in[0]:69 chanx_left_in[0]:68 0.0001065333
69 chanx_left_in[0]:68 chanx_left_in[0]:67 0.0019458
70 chanx_left_in[0]:67 chanx_left_in[0]:66 0.00010575

*END

*D_NET chanx_right_in[0] 0.01958974 //LENGTH 139.690 LUMPCC 0.003596256 DR

*CONN
*P chanx_right_in[0] I *L 0.29796 *C 103.650 27.200
*I mux_top_ipin_0\/mux_l1_in_0_:A0 I *L 0.001631 *C 95.510 27.880
*I mux_bottom_ipin_0\/mux_l1_in_0_:A0 I *L 0.001631 *C 91.370 27.880
*I mux_bottom_ipin_4\/mux_l1_in_0_:A0 I *L 0.001631 *C 61.815 26.520
*I mux_bottom_ipin_6\/mux_l1_in_0_:A0 I *L 0.001631 *C 55.030 22.780
*I mux_bottom_ipin_12\/mux_l1_in_0_:A0 I *L 0.001631 *C 52.615 27.880
*I mux_bottom_ipin_2\/mux_l1_in_0_:A0 I *L 0.001631 *C 37.435 27.880
*I mux_bottom_ipin_8\/mux_l1_in_0_:A0 I *L 0.001631 *C 24.210 27.880
*I ropt_mt_inst_721:A I *L 0.001767 *C 4.600 47.600
*I mux_bottom_ipin_10\/mux_l1_in_0_:A0 I *L 0.001631 *C 18.115 31.620
*I mux_bottom_ipin_14\/mux_l1_in_0_:A0 I *L 0.001631 *C 71.015 26.520
*N chanx_right_in[0]:11 *C 70.890 26.520
*N chanx_right_in[0]:12 *C 18.078 31.620
*N chanx_right_in[0]:13 *C 4.562 47.600
*N chanx_right_in[0]:14 *C 3.265 47.600
*N chanx_right_in[0]:15 *C 3.220 47.555
*N chanx_right_in[0]:16 *C 3.220 37.445
*N chanx_right_in[0]:17 *C 3.265 37.400
*N chanx_right_in[0]:18 *C 7.775 37.400
*N chanx_right_in[0]:19 *C 7.820 37.355
*N chanx_right_in[0]:20 *C 7.820 32.005
*N chanx_right_in[0]:21 *C 7.865 31.960
*N chanx_right_in[0]:22 *C 15.180 31.960
*N chanx_right_in[0]:23 *C 15.312 31.620
*N chanx_right_in[0]:24 *C 15.180 31.575
*N chanx_right_in[0]:25 *C 15.180 28.265
*N chanx_right_in[0]:26 *C 15.225 28.220
*N chanx_right_in[0]:27 *C 24.210 28.220
*N chanx_right_in[0]:28 *C 24.210 27.880
*N chanx_right_in[0]:29 *C 37.435 27.880
*N chanx_right_in[0]:30 *C 52.615 27.880
*N chanx_right_in[0]:31 *C 53.775 27.880
*N chanx_right_in[0]:32 *C 53.820 27.835
*N chanx_right_in[0]:33 *C 54.992 22.780
*N chanx_right_in[0]:34 *C 53.865 22.780
*N chanx_right_in[0]:35 *C 53.820 22.825
*N chanx_right_in[0]:36 *C 53.820 26.180
*N chanx_right_in[0]:37 *C 53.865 26.180
*N chanx_right_in[0]:38 *C 58.880 26.180
*N chanx_right_in[0]:39 *C 58.880 26.520
*N chanx_right_in[0]:40 *C 61.815 26.520
*N chanx_right_in[0]:41 *C 70.795 26.520
*N chanx_right_in[0]:42 *C 70.840 26.565
*N chanx_right_in[0]:43 *C 70.840 28.175
*N chanx_right_in[0]:44 *C 70.885 28.220
*N chanx_right_in[0]:45 *C 77.740 28.220
*N chanx_right_in[0]:46 *C 77.740 27.880
*N chanx_right_in[0]:47 *C 91.370 27.880
*N chanx_right_in[0]:48 *C 95.510 27.880
*N chanx_right_in[0]:49 *C 101.155 27.880
*N chanx_right_in[0]:50 *C 101.200 27.835
*N chanx_right_in[0]:51 *C 101.200 27.258
*N chanx_right_in[0]:52 *C 101.208 27.200

*CAP
0 chanx_right_in[0] 0.0002393441
1 mux_top_ipin_0\/mux_l1_in_0_:A0 1e-06
2 mux_bottom_ipin_0\/mux_l1_in_0_:A0 1e-06
3 mux_bottom_ipin_4\/mux_l1_in_0_:A0 1e-06
4 mux_bottom_ipin_6\/mux_l1_in_0_:A0 1e-06
5 mux_bottom_ipin_12\/mux_l1_in_0_:A0 1e-06
6 mux_bottom_ipin_2\/mux_l1_in_0_:A0 1e-06
7 mux_bottom_ipin_8\/mux_l1_in_0_:A0 1e-06
8 ropt_mt_inst_721:A 1e-06
9 mux_bottom_ipin_10\/mux_l1_in_0_:A0 1e-06
10 mux_bottom_ipin_14\/mux_l1_in_0_:A0 1e-06
11 chanx_right_in[0]:11 2.24535e-05
12 chanx_right_in[0]:12 0.0002076318
13 chanx_right_in[0]:13 6.252779e-05
14 chanx_right_in[0]:14 6.252779e-05
15 chanx_right_in[0]:15 0.0002919527
16 chanx_right_in[0]:16 0.0002919527
17 chanx_right_in[0]:17 0.0002845023
18 chanx_right_in[0]:18 0.0002845023
19 chanx_right_in[0]:19 0.0002369771
20 chanx_right_in[0]:20 0.0002369771
21 chanx_right_in[0]:21 0.0005190293
22 chanx_right_in[0]:22 0.0005479306
23 chanx_right_in[0]:23 0.000236533
24 chanx_right_in[0]:24 0.000229472
25 chanx_right_in[0]:25 0.000229472
26 chanx_right_in[0]:26 0.0004450169
27 chanx_right_in[0]:27 0.0004720421
28 chanx_right_in[0]:28 0.0008922656
29 chanx_right_in[0]:29 0.001836345
30 chanx_right_in[0]:30 0.001061113
31 chanx_right_in[0]:31 8.906669e-05
32 chanx_right_in[0]:32 0.0001046025
33 chanx_right_in[0]:33 0.0001003766
34 chanx_right_in[0]:34 0.0001003766
35 chanx_right_in[0]:35 0.0002025515
36 chanx_right_in[0]:36 0.0003399442
37 chanx_right_in[0]:37 0.0004155666
38 chanx_right_in[0]:38 0.0004414697
39 chanx_right_in[0]:39 0.0002279922
40 chanx_right_in[0]:40 0.0007918422
41 chanx_right_in[0]:41 0.0005831718
42 chanx_right_in[0]:42 0.0001196983
43 chanx_right_in[0]:43 0.0001196983
44 chanx_right_in[0]:44 0.0002868607
45 chanx_right_in[0]:45 0.0003141949
46 chanx_right_in[0]:46 0.0008588976
47 chanx_right_in[0]:47 0.00109762
48 chanx_right_in[0]:48 0.0005257318
49 chanx_right_in[0]:49 0.000263287
50 chanx_right_in[0]:50 3.531024e-05
51 chanx_right_in[0]:51 3.531024e-05
52 chanx_right_in[0]:52 0.0002393441
53 chanx_right_in[0]:16 chanx_left_in[12]:28 0.0002806464
54 chanx_right_in[0]:15 chanx_left_in[12]:29 0.0002806464
55 chanx_right_in[0]:26 chanx_left_in[12]:22 5.915314e-06
56 chanx_right_in[0]:29 chanx_left_in[12]:21 6.105272e-06
57 chanx_right_in[0]:28 chanx_left_in[12]:22 6.105272e-06
58 chanx_right_in[0]:27 chanx_left_in[12]:21 5.915314e-06
59 chanx_right_in[0]:30 mux_tree_tapbuf_size8_2_sram[3]:11 0.0001595519
60 chanx_right_in[0]:30 mux_tree_tapbuf_size8_2_sram[3]:7 4.989382e-07
61 chanx_right_in[0]:29 mux_tree_tapbuf_size8_2_sram[3]:10 0.0001595519
62 chanx_right_in[0]:29 mux_tree_tapbuf_size8_2_sram[3]:6 4.989382e-07
63 chanx_right_in[0]:26 mux_bottom_ipin_8/sky130_fd_sc_hd__mux2_1_0_X[0]:3 0.0002609261
64 chanx_right_in[0]:27 mux_bottom_ipin_8/sky130_fd_sc_hd__mux2_1_0_X[0]:4 0.0002609261
65 chanx_right_in[0]:21 mux_bottom_ipin_8/sky130_fd_sc_hd__mux2_1_4_X[0]:6 6.133224e-05
66 chanx_right_in[0]:20 mux_bottom_ipin_8/sky130_fd_sc_hd__mux2_1_4_X[0]:5 6.446059e-06
67 chanx_right_in[0]:19 mux_bottom_ipin_8/sky130_fd_sc_hd__mux2_1_4_X[0]:4 6.446059e-06
68 chanx_right_in[0]:22 mux_bottom_ipin_8/sky130_fd_sc_hd__mux2_1_4_X[0]:7 6.133224e-05
69 chanx_right_in[0]:20 mux_bottom_ipin_8/sky130_fd_sc_hd__mux2_1_5_X[0]:6 0.0001148268
70 chanx_right_in[0]:18 mux_bottom_ipin_8/sky130_fd_sc_hd__mux2_1_5_X[0]:3 6.186601e-07
71 chanx_right_in[0]:19 mux_bottom_ipin_8/sky130_fd_sc_hd__mux2_1_5_X[0]:5 0.0001148268
72 chanx_right_in[0]:17 mux_bottom_ipin_8/sky130_fd_sc_hd__mux2_1_5_X[0]:4 6.186601e-07
73 chanx_right_in[0]:18 mux_bottom_ipin_8/sky130_fd_sc_hd__mux2_1_6_X[0]:2 7.846268e-05
74 chanx_right_in[0]:17 mux_bottom_ipin_8/sky130_fd_sc_hd__mux2_1_6_X[0]:3 7.846268e-05
75 chanx_right_in[0]:16 optlc_net_107:8 9.886736e-05
76 chanx_right_in[0]:14 optlc_net_107:15 4.372474e-05
77 chanx_right_in[0]:15 optlc_net_107:9 9.886736e-05
78 chanx_right_in[0]:13 optlc_net_107:14 4.372474e-05
79 chanx_right_in[0]:47 optlc_net_108:20 4.802705e-06
80 chanx_right_in[0]:47 optlc_net_108:21 0.0001073104
81 chanx_right_in[0]:42 optlc_net_108:40 4.039532e-08
82 chanx_right_in[0]:44 optlc_net_108:22 5.37399e-05
83 chanx_right_in[0]:44 optlc_net_108:41 0.00010696
84 chanx_right_in[0]:44 optlc_net_108:24 0.0001083074
85 chanx_right_in[0]:43 optlc_net_108:39 4.039532e-08
86 chanx_right_in[0]:45 optlc_net_108:42 0.00010696
87 chanx_right_in[0]:45 optlc_net_108:41 0.0001083074
88 chanx_right_in[0]:45 optlc_net_108:21 5.37399e-05
89 chanx_right_in[0]:46 optlc_net_108:22 0.0001073104
90 chanx_right_in[0]:46 optlc_net_108:8 4.802705e-06
91 chanx_right_in[0]:48 mux_top_ipin_0/sky130_fd_sc_hd__mux2_1_0_X[0]:7 7.563282e-05
92 chanx_right_in[0]:48 mux_top_ipin_0/sky130_fd_sc_hd__mux2_1_0_X[0]:8 0.0001979019
93 chanx_right_in[0]:47 mux_top_ipin_0/sky130_fd_sc_hd__mux2_1_0_X[0]:8 7.563282e-05
94 chanx_right_in[0]:49 mux_top_ipin_0/sky130_fd_sc_hd__mux2_1_0_X[0]:7 0.0001979019
95 chanx_right_in[0]:50 mux_top_ipin_0/sky130_fd_sc_hd__mux2_1_0_X[0]:6 2.551043e-05
96 chanx_right_in[0]:51 mux_top_ipin_0/sky130_fd_sc_hd__mux2_1_0_X[0]:5 2.551043e-05

*RES
0 chanx_right_in[0] chanx_right_in[0]:52 0.0003826583
1 chanx_right_in[0]:37 chanx_right_in[0]:36 0.0045
2 chanx_right_in[0]:36 chanx_right_in[0]:35 0.002995536
3 chanx_right_in[0]:36 chanx_right_in[0]:32 0.001477679
4 chanx_right_in[0]:31 chanx_right_in[0]:30 0.001035714
5 chanx_right_in[0]:32 chanx_right_in[0]:31 0.0045
6 chanx_right_in[0]:21 chanx_right_in[0]:20 0.0045
7 chanx_right_in[0]:20 chanx_right_in[0]:19 0.004776786
8 chanx_right_in[0]:18 chanx_right_in[0]:17 0.004026785
9 chanx_right_in[0]:19 chanx_right_in[0]:18 0.0045
10 chanx_right_in[0]:17 chanx_right_in[0]:16 0.0045
11 chanx_right_in[0]:16 chanx_right_in[0]:15 0.009026786
12 chanx_right_in[0]:14 chanx_right_in[0]:13 0.001158482
13 chanx_right_in[0]:15 chanx_right_in[0]:14 0.0045
14 chanx_right_in[0]:13 ropt_mt_inst_721:A 0.152
15 chanx_right_in[0]:23 chanx_right_in[0]:22 0.0003035715
16 chanx_right_in[0]:23 chanx_right_in[0]:12 0.00246875
17 chanx_right_in[0]:24 chanx_right_in[0]:23 0.0045
18 chanx_right_in[0]:26 chanx_right_in[0]:25 0.0045
19 chanx_right_in[0]:25 chanx_right_in[0]:24 0.002955357
20 chanx_right_in[0]:12 mux_bottom_ipin_10\/mux_l1_in_0_:A0 0.152
21 chanx_right_in[0]:48 mux_top_ipin_0\/mux_l1_in_0_:A0 0.152
22 chanx_right_in[0]:48 chanx_right_in[0]:47 0.003696429
23 chanx_right_in[0]:34 chanx_right_in[0]:33 0.001006696
24 chanx_right_in[0]:35 chanx_right_in[0]:34 0.0045
25 chanx_right_in[0]:33 mux_bottom_ipin_6\/mux_l1_in_0_:A0 0.152
26 chanx_right_in[0]:40 mux_bottom_ipin_4\/mux_l1_in_0_:A0 0.152
27 chanx_right_in[0]:40 chanx_right_in[0]:39 0.002620536
28 chanx_right_in[0]:30 mux_bottom_ipin_12\/mux_l1_in_0_:A0 0.152
29 chanx_right_in[0]:30 chanx_right_in[0]:29 0.01355357
30 chanx_right_in[0]:11 mux_bottom_ipin_14\/mux_l1_in_0_:A0 0.152
31 chanx_right_in[0]:29 mux_bottom_ipin_2\/mux_l1_in_0_:A0 0.152
32 chanx_right_in[0]:29 chanx_right_in[0]:28 0.01180804
33 chanx_right_in[0]:47 mux_bottom_ipin_0\/mux_l1_in_0_:A0 0.152
34 chanx_right_in[0]:47 chanx_right_in[0]:46 0.01216964
35 chanx_right_in[0]:28 mux_bottom_ipin_8\/mux_l1_in_0_:A0 0.152
36 chanx_right_in[0]:28 chanx_right_in[0]:27 0.0003035715
37 chanx_right_in[0]:49 chanx_right_in[0]:48 0.005040179
38 chanx_right_in[0]:50 chanx_right_in[0]:49 0.0045
39 chanx_right_in[0]:51 chanx_right_in[0]:50 0.000515625
40 chanx_right_in[0]:52 chanx_right_in[0]:51 0.00341
41 chanx_right_in[0]:41 chanx_right_in[0]:40 0.008017858
42 chanx_right_in[0]:41 chanx_right_in[0]:11 8.482143e-05
43 chanx_right_in[0]:42 chanx_right_in[0]:41 0.0045
44 chanx_right_in[0]:44 chanx_right_in[0]:43 0.0045
45 chanx_right_in[0]:43 chanx_right_in[0]:42 0.0014375
46 chanx_right_in[0]:22 chanx_right_in[0]:21 0.006531251
47 chanx_right_in[0]:27 chanx_right_in[0]:26 0.008022322
48 chanx_right_in[0]:38 chanx_right_in[0]:37 0.004477679
49 chanx_right_in[0]:39 chanx_right_in[0]:38 0.0003035715
50 chanx_right_in[0]:45 chanx_right_in[0]:44 0.006120536
51 chanx_right_in[0]:46 chanx_right_in[0]:45 0.0003035715

*END

*D_NET chanx_right_in[3] 0.02663361 //LENGTH 191.105 LUMPCC 0.003750508 DR

*CONN
*P chanx_right_in[3] I *L 0.29796 *C 103.575 59.840
*I mux_bottom_ipin_15\/mux_l2_in_1_:A1 I *L 0.00198 *C 90.065 58.140
*I mux_bottom_ipin_13\/mux_l1_in_1_:A0 I *L 0.001631 *C 82.170 58.820
*I mux_bottom_ipin_1\/mux_l1_in_1_:A0 I *L 0.001631 *C 69.290 53.380
*I mux_bottom_ipin_5\/mux_l1_in_1_:A0 I *L 0.001631 *C 61.010 53.380
*I mux_bottom_ipin_11\/mux_l2_in_1_:A1 I *L 0.00198 *C 29.345 52.700
*I mux_bottom_ipin_9\/mux_l1_in_1_:A0 I *L 0.001631 *C 19.165 53.380
*I FTB_24__23:A I *L 0.001776 *C 13.340 6.800
*I mux_bottom_ipin_7\/mux_l2_in_1_:A1 I *L 0.00198 *C 34.500 58.140
*I mux_bottom_ipin_3\/mux_l2_in_1_:A1 I *L 0.00198 *C 45.905 52.700
*N chanx_right_in[3]:10 *C 34.500 58.125
*N chanx_right_in[3]:11 *C 13.340 6.800
*N chanx_right_in[3]:12 *C 13.340 6.845
*N chanx_right_in[3]:13 *C 13.340 9.475
*N chanx_right_in[3]:14 *C 13.295 9.520
*N chanx_right_in[3]:15 *C 8.785 9.520
*N chanx_right_in[3]:16 *C 8.740 9.565
*N chanx_right_in[3]:17 *C 8.740 10.822
*N chanx_right_in[3]:18 *C 8.732 10.880
*N chanx_right_in[3]:19 *C 7.380 10.880
*N chanx_right_in[3]:20 *C 7.360 10.888
*N chanx_right_in[3]:21 *C 7.360 44.873