*SPEF "1481-1998"
*DESIGN "cbx_1__1_"
*DATE "Mon Oct 26 23:03:32 2020"
*
*
*
*
*DIVIDER /
*DELIMITER :
*T_UNIT 1 NS
*C_UNIT 1 PF
*R_UNIT 1 KOHM
*L_UNIT 1 HENRY

// XY_UNIT 1 UM
// PARASITIC_TECH nominal at 25.000 degree

*PORTS
prog_clk[0] I *C 3.220 0.680
chanx_left_in[0] I *C 0.690 57.120
chanx_left_in[1] I *C 0.690 55.760
chanx_left_in[2] I *C 0.690 35.360
chanx_left_in[3] I *C 0.690 46.920
chanx_left_in[4] I *C 0.690 53.040
chanx_left_in[5] I *C 0.690 44.880
chanx_left_in[6] I *C 0.690 31.280
chanx_left_in[7] I *C 0.690 8.160
chanx_left_in[8] I *C 0.690 19.040
chanx_left_in[9] I *C 0.690 36.720
chanx_left_in[10] I *C 0.690 34.000
chanx_left_in[11] I *C 0.690 51.680
chanx_left_in[12] I *C 0.690 14.960
chanx_left_in[13] I *C 0.690 58.480
chanx_left_in[14] I *C 0.690 20.400
chanx_left_in[15] I *C 0.690 40.800
chanx_left_in[16] I *C 0.690 13.600
chanx_left_in[17] I *C 0.690 39.440
chanx_left_in[18] I *C 0.690 25.160
chanx_left_in[19] I *C 0.690 62.560
chanx_right_in[0] I *C 104.190 34.000
chanx_right_in[1] I *C 104.190 54.400
chanx_right_in[2] I *C 104.190 55.760
chanx_right_in[3] I *C 104.190 47.600
chanx_right_in[4] I *C 104.190 53.040
chanx_right_in[5] I *C 104.190 20.400
chanx_right_in[6] I *C 104.190 23.120
chanx_right_in[7] I *C 104.190 38.760
chanx_right_in[8] I *C 104.190 21.760
chanx_right_in[9] I *C 104.190 42.160
chanx_right_in[10] I *C 104.190 25.840
chanx_right_in[11] I *C 104.190 69.360
chanx_right_in[12] I *C 104.190 17.680
chanx_right_in[13] I *C 104.190 72.080
chanx_right_in[14] I *C 104.190 27.200
chanx_right_in[15] I *C 102.580 0.680
chanx_right_in[16] I *C 104.190 4.760
chanx_right_in[17] I *C 104.190 61.200
chanx_right_in[18] I *C 104.190 43.520
chanx_right_in[19] I *C 104.190 63.920
ccff_head[0] I *C 104.190 37.400
chanx_left_out[0] O *C 4.600 0.680
chanx_left_out[1] O *C 0.690 72.080
chanx_left_out[2] O *C 0.690 28.560
chanx_left_out[3] O *C 4.600 0.680
chanx_left_out[4] O *C 0.690 66.640
chanx_left_out[5] O *C 0.690 68.000
chanx_left_out[6] O *C 0.690 50.320
chanx_left_out[7] O *C 0.690 42.160
chanx_left_out[8] O *C 0.690 17.680
chanx_left_out[9] O *C 0.690 23.800
chanx_left_out[10] O *C 0.690 9.520
chanx_left_out[11] O *C 5.520 0.680
chanx_left_out[12] O *C 0.690 69.360
chanx_left_out[13] O *C 6.440 0.680
chanx_left_out[14] O *C 0.690 63.920
chanx_left_out[15] O *C 0.690 29.920
chanx_left_out[16] O *C 0.690 12.240
chanx_left_out[17] O *C 0.690 6.800
chanx_left_out[18] O *C 3.220 75.480
chanx_left_out[19] O *C 0.690 4.080
chanx_right_out[0] O *C 104.190 48.960
chanx_right_out[1] O *C 104.190 10.880
chanx_right_out[2] O *C 100.740 0.680
chanx_right_out[3] O *C 104.190 12.240
chanx_right_out[4] O *C 104.190 58.480
chanx_right_out[5] O *C 104.190 59.840
chanx_right_out[6] O *C 104.190 6.800
chanx_right_out[7] O *C 104.190 14.960
chanx_right_out[8] O *C 104.190 16.320
chanx_right_out[9] O *C 104.190 44.880
chanx_right_out[10] O *C 104.190 31.960
chanx_right_out[11] O *C 104.190 9.520
chanx_right_out[12] O *C 104.190 70.720
chanx_right_out[13] O *C 104.190 66.640
chanx_right_out[14] O *C 104.190 65.280
chanx_right_out[15] O *C 104.190 50.320
chanx_right_out[16] O *C 101.660 0.680
chanx_right_out[17] O *C 104.190 28.560
chanx_right_out[18] O *C 102.580 75.480
chanx_right_out[19] O *C 100.280 0.680
top_grid_pin_16_[0] O *C 34.040 75.480
top_grid_pin_17_[0] O *C 35.880 75.480
top_grid_pin_18_[0] O *C 34.960 75.480
top_grid_pin_19_[0] O *C 36.800 75.480
top_grid_pin_20_[0] O *C 57.500 75.480
top_grid_pin_21_[0] O *C 16.100 75.480
top_grid_pin_22_[0] O *C 33.120 75.480
top_grid_pin_23_[0] O *C 15.180 75.480
top_grid_pin_24_[0] O *C 2.300 75.480
top_grid_pin_25_[0] O *C 12.420 75.480
top_grid_pin_26_[0] O *C 13.340 75.480
top_grid_pin_27_[0] O *C 14.260 75.480
top_grid_pin_28_[0] O *C 73.600 75.480
top_grid_pin_29_[0] O *C 74.520 75.480
top_grid_pin_30_[0] O *C 76.360 75.480
top_grid_pin_31_[0] O *C 75.440 75.480
ccff_tail[0] O *C 0.690 61.200
VDD I *C 52.440 38.080
VSS I *C 52.440 38.080

*D_NET chanx_left_in[0] 0.02332642 //LENGTH 166.420 LUMPCC 0.007474943 DR

*CONN
*P chanx_left_in[0] I *L 0.29796 *C 1.230 57.120
*I mux_bottom_ipin_10\/mux_l1_in_0_:A1 I *L 0.00198 *C 9.660 28.900
*I mux_bottom_ipin_8\/mux_l1_in_0_:A1 I *L 0.00198 *C 17.940 25.500
*I mux_bottom_ipin_2\/mux_l1_in_0_:A1 I *L 0.00198 *C 43.145 25.500
*I mux_bottom_ipin_12\/mux_l1_in_0_:A1 I *L 0.00198 *C 73.240 28.900
*I mux_bottom_ipin_6\/mux_l1_in_0_:A1 I *L 0.00198 *C 82.705 25.500
*I mux_bottom_ipin_0\/mux_l1_in_0_:A1 I *L 0.00198 *C 86.845 28.900
*I mux_bottom_ipin_14\/mux_l1_in_0_:A1 I *L 0.00198 *C 94.300 34.340
*I ropt_mt_inst_742:A I *L 0.001767 *C 97.825 47.600
*I mux_bottom_ipin_4\/mux_l1_in_0_:A1 I *L 0.00198 *C 47.480 28.900
*N chanx_left_in[0]:10 *C 47.495 28.900
*N chanx_left_in[0]:11 *C 47.818 28.900
*N chanx_left_in[0]:12 *C 47.840 28.900
*N chanx_left_in[0]:13 *C 97.863 47.600
*N chanx_left_in[0]:14 *C 98.395 47.600
*N chanx_left_in[0]:15 *C 98.440 47.555
*N chanx_left_in[0]:16 *C 98.440 39.145
*N chanx_left_in[0]:17 *C 98.395 39.100
*N chanx_left_in[0]:18 *C 93.885 39.100
*N chanx_left_in[0]:19 *C 93.840 39.055
*N chanx_left_in[0]:20 *C 94.263 34.340
*N chanx_left_in[0]:21 *C 93.885 34.340
*N chanx_left_in[0]:22 *C 93.840 34.340
*N chanx_left_in[0]:23 *C 93.840 29.298
*N chanx_left_in[0]:24 *C 93.833 29.240
*N chanx_left_in[0]:25 *C 86.845 28.900
*N chanx_left_in[0]:26 *C 86.940 28.900
*N chanx_left_in[0]:27 *C 86.940 29.240
*N chanx_left_in[0]:28 *C 86.940 29.240
*N chanx_left_in[0]:29 *C 86.940 28.560
*N chanx_left_in[0]:30 *C 82.705 25.500
*N chanx_left_in[0]:31 *C 82.800 25.545
*N chanx_left_in[0]:32 *C 82.800 28.503
*N chanx_left_in[0]:33 *C 82.800 28.560
*N chanx_left_in[0]:34 *C 73.140 28.900
*N chanx_left_in[0]:35 *C 73.140 28.900
*N chanx_left_in[0]:36 *C 73.140 28.560
*N chanx_left_in[0]:37 *C 73.140 28.560
*N chanx_left_in[0]:38 *C 47.848 28.560
*N chanx_left_in[0]:39 *C 47.840 28.503
*N chanx_left_in[0]:40 *C 47.840 25.545
*N chanx_left_in[0]:41 *C 47.795 25.500
*N chanx_left_in[0]:42 *C 43.183 25.500
*N chanx_left_in[0]:43 *C 42.803 25.500
*N chanx_left_in[0]:44 *C 42.780 25.455
*N chanx_left_in[0]:45 *C 42.780 24.538
*N chanx_left_in[0]:46 *C 42.773 24.480
*N chanx_left_in[0]:47 *C 18.408 24.480
*N chanx_left_in[0]:48 *C 18.400 24.538
*N chanx_left_in[0]:49 *C 17.940 25.500
*N chanx_left_in[0]:50 *C 17.940 25.500
*N chanx_left_in[0]:51 *C 18.400 25.500
*N chanx_left_in[0]:52 *C 18.400 29.195
*N chanx_left_in[0]:53 *C 18.355 29.240
*N chanx_left_in[0]:54 *C 9.660 28.915
*N chanx_left_in[0]:55 *C 9.683 29.240
*N chanx_left_in[0]:56 *C 9.660 29.285
*N chanx_left_in[0]:57 *C 9.660 31.902
*N chanx_left_in[0]:58 *C 9.652 31.960
*N chanx_left_in[0]:59 *C 8.300 31.960
*N chanx_left_in[0]:60 *C 8.280 31.968
*N chanx_left_in[0]:61 *C 8.280 57.113
*N chanx_left_in[0]:62 *C 8.260 57.120

*CAP
0 chanx_left_in[0] 0.0005483266
1 mux_bottom_ipin_10\/mux_l1_in_0_:A1 1e-06
2 mux_bottom_ipin_8\/mux_l1_in_0_:A1 1e-06
3 mux_bottom_ipin_2\/mux_l1_in_0_:A1 1e-06
4 mux_bottom_ipin_12\/mux_l1_in_0_:A1 1e-06
5 mux_bottom_ipin_6\/mux_l1_in_0_:A1 1e-06
6 mux_bottom_ipin_0\/mux_l1_in_0_:A1 1e-06
7 mux_bottom_ipin_14\/mux_l1_in_0_:A1 1e-06
8 ropt_mt_inst_742:A 1e-06
9 mux_bottom_ipin_4\/mux_l1_in_0_:A1 1e-06
10 chanx_left_in[0]:10 3.792274e-05
11 chanx_left_in[0]:11 3.792274e-05
12 chanx_left_in[0]:12 5.594618e-05
13 chanx_left_in[0]:13 5.369847e-05
14 chanx_left_in[0]:14 5.369847e-05
15 chanx_left_in[0]:15 0.0003833762
16 chanx_left_in[0]:16 0.0003833762
17 chanx_left_in[0]:17 0.000305554
18 chanx_left_in[0]:18 0.000305554
19 chanx_left_in[0]:19 0.0002662671
20 chanx_left_in[0]:20 4.998934e-05
21 chanx_left_in[0]:21 4.998934e-05
22 chanx_left_in[0]:22 0.0005566817
23 chanx_left_in[0]:23 0.0002592491
24 chanx_left_in[0]:24 0.0003670999
25 chanx_left_in[0]:25 2.884443e-05
26 chanx_left_in[0]:26 4.869077e-05
27 chanx_left_in[0]:27 5.326907e-05
28 chanx_left_in[0]:28 0.0004205451
29 chanx_left_in[0]:29 0.0003682965
30 chanx_left_in[0]:30 2.786334e-05
31 chanx_left_in[0]:31 0.0001509865
32 chanx_left_in[0]:32 0.0001509865
33 chanx_left_in[0]:33 0.0008488304
34 chanx_left_in[0]:34 3.295821e-05
35 chanx_left_in[0]:35 5.372623e-05
36 chanx_left_in[0]:36 5.828012e-05
37 chanx_left_in[0]:37 0.001667001
38 chanx_left_in[0]:38 0.001133022
39 chanx_left_in[0]:39 0.000144948
40 chanx_left_in[0]:40 0.0001227231
41 chanx_left_in[0]:41 0.0002953548
42 chanx_left_in[0]:42 0.0003299533
43 chanx_left_in[0]:43 3.459846e-05
44 chanx_left_in[0]:44 6.710238e-05
45 chanx_left_in[0]:45 6.710238e-05
46 chanx_left_in[0]:46 0.0006323946
47 chanx_left_in[0]:47 0.0006323946
48 chanx_left_in[0]:48 6.640766e-05
49 chanx_left_in[0]:49 3.741168e-05
50 chanx_left_in[0]:50 5.699867e-05
51 chanx_left_in[0]:51 0.000304887
52 chanx_left_in[0]:52 0.0002143517
53 chanx_left_in[0]:53 0.0004936312
54 chanx_left_in[0]:54 3.565355e-05
55 chanx_left_in[0]:55 0.0005292848
56 chanx_left_in[0]:56 0.0001930616
57 chanx_left_in[0]:57 0.0001930616
58 chanx_left_in[0]:58 0.0001499175
59 chanx_left_in[0]:59 0.0001499175
60 chanx_left_in[0]:60 0.0008925191
61 chanx_left_in[0]:61 0.0008925191
62 chanx_left_in[0]:62 0.0005483266
63 chanx_left_in[0]:44 chanx_left_in[2]:46 8.190692e-06
64 chanx_left_in[0]:45 chanx_left_in[2]:45 8.190692e-06
65 chanx_left_in[0]:46 chanx_left_in[2]:53 0.0006553854
66 chanx_left_in[0]:47 chanx_left_in[2]:54 0.0006553854
67 chanx_left_in[0]:32 chanx_left_in[2]:30 4.732764e-07
68 chanx_left_in[0]:32 chanx_left_in[2]:21 2.510425e-07
69 chanx_left_in[0]:31 chanx_left_in[2]:20 2.510425e-07
70 chanx_left_in[0]:31 chanx_left_in[2]:31 4.732764e-07
71 chanx_left_in[0]:50 chanx_left_in[2]:54 5.289467e-06
72 chanx_left_in[0]:27 chanx_left_in[2]:20 9.15118e-06
73 chanx_left_in[0]:26 chanx_left_in[2]:21 9.15118e-06
74 chanx_left_in[0]:51 chanx_left_in[2]:53 5.289467e-06
75 chanx_left_in[0]:46 chanx_left_in[8]:26 0.0005644749
76 chanx_left_in[0]:47 chanx_left_in[8]:30 0.0005644749
77 chanx_left_in[0]:38 chanx_left_in[12]:12 1.233308e-05
78 chanx_left_in[0]:38 chanx_left_in[12]:9 3.469304e-05
79 chanx_left_in[0]:38 chanx_left_in[12]:27 0.0001094526
80 chanx_left_in[0]:38 chanx_left_in[12]:22 8.099332e-05
81 chanx_left_in[0]:58 chanx_left_in[12]:27 3.162681e-05
82 chanx_left_in[0]:59 chanx_left_in[12]:28 3.162681e-05
83 chanx_left_in[0]:36 chanx_left_in[12]:6 3.701107e-06
84 chanx_left_in[0]:37 chanx_left_in[12]:21 8.099332e-05
85 chanx_left_in[0]:37 chanx_left_in[12]:9 5.791068e-05
86 chanx_left_in[0]:37 chanx_left_in[12]:8 3.469304e-05
87 chanx_left_in[0]:37 chanx_left_in[12]:11 1.233308e-05
88 chanx_left_in[0]:37 chanx_left_in[12]:22 0.0001094526
89 chanx_left_in[0]:35 chanx_left_in[12]:7 3.701107e-06
90 chanx_left_in[0]:33 chanx_left_in[12]:8 5.791068e-05
91 chanx_left_in[0]:60 chanx_left_in[17]:27 0.0003643706
92 chanx_left_in[0]:61 chanx_left_in[17]:26 0.0003643706
93 chanx_left_in[0]:16 chanx_left_in[17]:6 5.694887e-05
94 chanx_left_in[0]:15 chanx_left_in[17]:7 5.694887e-05
95 chanx_left_in[0]:41 chanx_right_in[0]:31 7.423559e-06
96 chanx_left_in[0]:41 chanx_right_in[0]:29 2.220156e-05
97 chanx_left_in[0]:43 chanx_right_in[0]:28 3.15242e-05
98 chanx_left_in[0]:43 chanx_right_in[0]:30 6.434077e-07
99 chanx_left_in[0]:46 chanx_right_in[0]:26 0.0001274689
100 chanx_left_in[0]:47 chanx_right_in[0]:25 0.0001274689
101 chanx_left_in[0]:23 chanx_right_in[0]:48 3.519239e-05
102 chanx_left_in[0]:23 chanx_right_in[0]:52 3.938502e-06
103 chanx_left_in[0]:24 chanx_right_in[0]:47 0.0001455499
104 chanx_left_in[0]:38 chanx_right_in[0]:35 8.27483e-06
105 chanx_left_in[0]:55 chanx_right_in[0]:12 4.061938e-07
106 chanx_left_in[0]:55 chanx_right_in[0]:18 0.0001077824
107 chanx_left_in[0]:53 chanx_right_in[0]:19 0.0001077824
108 chanx_left_in[0]:53 chanx_right_in[0]:17 4.061938e-07
109 chanx_left_in[0]:52 chanx_right_in[0]:23 4.496469e-07
110 chanx_left_in[0]:52 chanx_right_in[0]:20 3.229221e-06
111 chanx_left_in[0]:42 chanx_right_in[0]:28 2.220156e-05
112 chanx_left_in[0]:42 chanx_right_in[0]:31 6.434077e-07
113 chanx_left_in[0]:42 chanx_right_in[0]:30 7.423559e-06
114 chanx_left_in[0]:42 chanx_right_in[0]:29 3.15242e-05
115 chanx_left_in[0]:37 chanx_right_in[0]:36 8.27483e-06
116 chanx_left_in[0]:11 chanx_right_in[0]:36 5.026106e-06
117 chanx_left_in[0]:10 chanx_right_in[0]:35 5.026106e-06
118 chanx_left_in[0]:32 chanx_right_in[0]:40 4.284873e-05
119 chanx_left_in[0]:31 chanx_right_in[0]:39 4.284873e-05
120 chanx_left_in[0]:22 chanx_right_in[0]:51 3.913089e-05
121 chanx_left_in[0]:50 chanx_right_in[0]:25 5.289467e-06
122 chanx_left_in[0]:27 chanx_right_in[0]:44 3.69616e-06
123 chanx_left_in[0]:28 chanx_right_in[0]:45 1.396129e-05
124 chanx_left_in[0]:28 chanx_right_in[0]:46 0.0001455499
125 chanx_left_in[0]:26 chanx_right_in[0]:45 3.69616e-06
126 chanx_left_in[0]:51 chanx_right_in[0]:23 3.229221e-06
127 chanx_left_in[0]:51 chanx_right_in[0]:26 5.289467e-06
128 chanx_left_in[0]:51 chanx_right_in[0]:24 4.496469e-07
129 chanx_left_in[0]:29 chanx_right_in[0]:44 1.396129e-05
130 chanx_left_in[0]:41 mux_tree_tapbuf_size8_mem_5_ccff_tail[0]:6 5.260362e-06
131 chanx_left_in[0]:46 mux_tree_tapbuf_size8_mem_5_ccff_tail[0]:6 0.0001212978
132 chanx_left_in[0]:47 mux_tree_tapbuf_size8_mem_5_ccff_tail[0]:7 0.0001212978
133 chanx_left_in[0]:38 mux_tree_tapbuf_size8_mem_5_ccff_tail[0]:7 0.0001380763
134 chanx_left_in[0]:42 mux_tree_tapbuf_size8_mem_5_ccff_tail[0]:7 5.260362e-06
135 chanx_left_in[0]:37 mux_tree_tapbuf_size8_mem_5_ccff_tail[0]:6 0.0001380763
136 chanx_left_in[0]:38 mux_bottom_ipin_0/sky130_fd_sc_hd__mux2_1_3_X[0]:6 6.470516e-05
137 chanx_left_in[0]:37 mux_bottom_ipin_0/sky130_fd_sc_hd__mux2_1_3_X[0]:6 0.0001259943
138 chanx_left_in[0]:37 mux_bottom_ipin_0/sky130_fd_sc_hd__mux2_1_3_X[0]:7 6.470516e-05
139 chanx_left_in[0]:33 mux_bottom_ipin_0/sky130_fd_sc_hd__mux2_1_3_X[0]:7 0.0001259943
140 chanx_left_in[0]:38 mux_bottom_ipin_0/sky130_fd_sc_hd__mux2_1_9_X[0]:9 0.0002764228
141 chanx_left_in[0]:37 mux_bottom_ipin_0/sky130_fd_sc_hd__mux2_1_9_X[0]:10 0.0002764228
142 chanx_left_in[0]:40 mux_bottom_ipin_4/sky130_fd_sc_hd__mux2_1_0_X[0]:4 7.941508e-05
143 chanx_left_in[0]:39 mux_bottom_ipin_4/sky130_fd_sc_hd__mux2_1_0_X[0]:5 7.941508e-05
144 chanx_left_in[0]:60 mux_bottom_ipin_10/sky130_fd_sc_hd__mux2_1_7_X[0]:9 0.0003042754
145 chanx_left_in[0]:61 mux_bottom_ipin_10/sky130_fd_sc_hd__mux2_1_7_X[0]:8 0.0003042754
146 chanx_left_in[0]:16 ropt_net_160:5 6.18719e-05
147 chanx_left_in[0]:15 ropt_net_160:4 6.18719e-05

*RES
0 chanx_left_in[0] chanx_left_in[0]:62 0.001101367
1 chanx_left_in[0]:41 chanx_left_in[0]:40 0.0045
2 chanx_left_in[0]:40 chanx_left_in[0]:39 0.002640625
3 chanx_left_in[0]:43 chanx_left_in[0]:42 0.0002065218
4 chanx_left_in[0]:44 chanx_left_in[0]:43 0.0045
5 chanx_left_in[0]:45 chanx_left_in[0]:44 0.0008191965
6 chanx_left_in[0]:46 chanx_left_in[0]:45 0.00341
7 chanx_left_in[0]:48 chanx_left_in[0]:47 0.00341
8 chanx_left_in[0]:47 chanx_left_in[0]:46 0.003817183
9 chanx_left_in[0]:23 chanx_left_in[0]:22 0.004502232
10 chanx_left_in[0]:24 chanx_left_in[0]:23 0.00341
11 chanx_left_in[0]:39 chanx_left_in[0]:38 0.00341
12 chanx_left_in[0]:39 chanx_left_in[0]:12 0.0001911058
13 chanx_left_in[0]:38 chanx_left_in[0]:37 0.003962492
14 chanx_left_in[0]:55 chanx_left_in[0]:54 0.0001766304
15 chanx_left_in[0]:55 chanx_left_in[0]:53 0.007743304
16 chanx_left_in[0]:56 chanx_left_in[0]:55 0.0045
17 chanx_left_in[0]:57 chanx_left_in[0]:56 0.002337053
18 chanx_left_in[0]:58 chanx_left_in[0]:57 0.00341
19 chanx_left_in[0]:59 chanx_left_in[0]:58 0.0002118917
20 chanx_left_in[0]:60 chanx_left_in[0]:59 0.00341
21 chanx_left_in[0]:62 chanx_left_in[0]:61 0.00341
22 chanx_left_in[0]:61 chanx_left_in[0]:60 0.003939383
23 chanx_left_in[0]:53 chanx_left_in[0]:52 0.0045
24 chanx_left_in[0]:52 chanx_left_in[0]:51 0.003299107
25 chanx_left_in[0]:42 mux_bottom_ipin_2\/mux_l1_in_0_:A1 0.152
26 chanx_left_in[0]:42 chanx_left_in[0]:41 0.004118304
27 chanx_left_in[0]:54 mux_bottom_ipin_10\/mux_l1_in_0_:A1 0.152
28 chanx_left_in[0]:36 chanx_left_in[0]:35 0.0001634616
29 chanx_left_in[0]:37 chanx_left_in[0]:36 0.00341
30 chanx_left_in[0]:37 chanx_left_in[0]:33 0.0015134
31 chanx_left_in[0]:34 mux_bottom_ipin_12\/mux_l1_in_0_:A1 0.152
32 chanx_left_in[0]:35 chanx_left_in[0]:34 0.0045
33 chanx_left_in[0]:11 chanx_left_in[0]:10 0.0001752717
34 chanx_left_in[0]:12 chanx_left_in[0]:11 0.0045
35 chanx_left_in[0]:10 mux_bottom_ipin_4\/mux_l1_in_0_:A1 0.152
36 chanx_left_in[0]:32 chanx_left_in[0]:31 0.002640625
37 chanx_left_in[0]:33 chanx_left_in[0]:32 0.00341
38 chanx_left_in[0]:33 chanx_left_in[0]:29 0.0006485999
39 chanx_left_in[0]:30 mux_bottom_ipin_6\/mux_l1_in_0_:A1 0.152
40 chanx_left_in[0]:31 chanx_left_in[0]:30 0.0045
41 chanx_left_in[0]:21 chanx_left_in[0]:20 0.0003370536
42 chanx_left_in[0]:22 chanx_left_in[0]:21 0.0045
43 chanx_left_in[0]:22 chanx_left_in[0]:19 0.004209822
44 chanx_left_in[0]:20 mux_bottom_ipin_14\/mux_l1_in_0_:A1 0.152
45 chanx_left_in[0]:18 chanx_left_in[0]:17 0.004026786
46 chanx_left_in[0]:19 chanx_left_in[0]:18 0.0045
47 chanx_left_in[0]:17 chanx_left_in[0]:16 0.0045
48 chanx_left_in[0]:16 chanx_left_in[0]:15 0.007508929
49 chanx_left_in[0]:14 chanx_left_in[0]:13 0.0004754465
50 chanx_left_in[0]:15 chanx_left_in[0]:14 0.0045
51 chanx_left_in[0]:13 ropt_mt_inst_742:A 0.152
52 chanx_left_in[0]:49 mux_bottom_ipin_8\/mux_l1_in_0_:A1 0.152
53 chanx_left_in[0]:50 chanx_left_in[0]:49 0.0045
54 chanx_left_in[0]:27 chanx_left_in[0]:26 0.0001634615
55 chanx_left_in[0]:28 chanx_left_in[0]:27 0.00341
56 chanx_left_in[0]:28 chanx_left_in[0]:24 0.001079825
57 chanx_left_in[0]:25 mux_bottom_ipin_0\/mux_l1_in_0_:A1 0.152
58 chanx_left_in[0]:26 chanx_left_in[0]:25 0.0045
59 chanx_left_in[0]:51 chanx_left_in[0]:50 0.0004107143
60 chanx_left_in[0]:51 chanx_left_in[0]:48 0.0008593751
61 chanx_left_in[0]:29 chanx_left_in[0]:28 0.0001065333

*END

*D_NET mux_bottom_ipin_8/sky130_fd_sc_hd__mux2_1_7_X[0] 0.001681685 //LENGTH 13.380 LUMPCC 0.0004660463 DR

*CONN
*I mux_bottom_ipin_8\/mux_l3_in_0_:X O *L 0 *C 13.055 33.320
*I mux_bottom_ipin_8\/mux_l4_in_0_:A1 I *L 0.00198 *C 9.105 41.820
*N mux_bottom_ipin_8/sky130_fd_sc_hd__mux2_1_7_X[0]:2 *C 9.143 41.820
*N mux_bottom_ipin_8/sky130_fd_sc_hd__mux2_1_7_X[0]:3 *C 9.615 41.820
*N mux_bottom_ipin_8/sky130_fd_sc_hd__mux2_1_7_X[0]:4 *C 9.660 41.775
*N mux_bottom_ipin_8/sky130_fd_sc_hd__mux2_1_7_X[0]:5 *C 9.660 33.365
*N mux_bottom_ipin_8/sky130_fd_sc_hd__mux2_1_7_X[0]:6 *C 9.705 33.320
*N mux_bottom_ipin_8/sky130_fd_sc_hd__mux2_1_7_X[0]:7 *C 13.018 33.320

*CAP
0 mux_bottom_ipin_8\/mux_l3_in_0_:X 1e-06
1 mux_bottom_ipin_8\/mux_l4_in_0_:A1 1e-06
2 mux_bottom_ipin_8/sky130_fd_sc_hd__mux2_1_7_X[0]:2 5.969875e-05
3 mux_bottom_ipin_8/sky130_fd_sc_hd__mux2_1_7_X[0]:3 5.969875e-05
4 mux_bottom_ipin_8/sky130_fd_sc_hd__mux2_1_7_X[0]:4 0.0003565236
5 mux_bottom_ipin_8/sky130_fd_sc_hd__mux2_1_7_X[0]:5 0.0003565236
6 mux_bottom_ipin_8/sky130_fd_sc_hd__mux2_1_7_X[0]:6 0.0001905969
7 mux_bottom_ipin_8/sky130_fd_sc_hd__mux2_1_7_X[0]:7 0.0001905969
8 mux_bottom_ipin_8/sky130_fd_sc_hd__mux2_1_7_X[0]:6 chanx_right_in[9]:11 1.840762e-05
9 mux_bottom_ipin_8/sky130_fd_sc_hd__mux2_1_7_X[0]:6 chanx_right_in[9]:13 8.468766e-06
10 mux_bottom_ipin_8/sky130_fd_sc_hd__mux2_1_7_X[0]:6 chanx_right_in[9]:15 3.180332e-05
11 mux_bottom_ipin_8/sky130_fd_sc_hd__mux2_1_7_X[0]:7 chanx_right_in[9]:12 1.840762e-05
12 mux_bottom_ipin_8/sky130_fd_sc_hd__mux2_1_7_X[0]:7 chanx_right_in[9]:14 8.468766e-06
13 mux_bottom_ipin_8/sky130_fd_sc_hd__mux2_1_7_X[0]:7 chanx_right_in[9]:16 3.180332e-05
14 mux_bottom_ipin_8/sky130_fd_sc_hd__mux2_1_7_X[0]:4 mux_tree_tapbuf_size10_4_sram[2]:10 8.949054e-07
15 mux_bottom_ipin_8/sky130_fd_sc_hd__mux2_1_7_X[0]:4 mux_tree_tapbuf_size10_4_sram[2]:19 6.936525e-05
16 mux_bottom_ipin_8/sky130_fd_sc_hd__mux2_1_7_X[0]:6 mux_tree_tapbuf_size10_4_sram[2]:8 7.507935e-07
17 mux_bottom_ipin_8/sky130_fd_sc_hd__mux2_1_7_X[0]:5 mux_tree_tapbuf_size10_4_sram[2]:9 8.949054e-07
18 mux_bottom_ipin_8/sky130_fd_sc_hd__mux2_1_7_X[0]:5 mux_tree_tapbuf_size10_4_sram[2]:20 6.936525e-05
19 mux_bottom_ipin_8/sky130_fd_sc_hd__mux2_1_7_X[0]:7 mux_tree_tapbuf_size10_4_sram[2]:7 7.507935e-07
20 mux_bottom_ipin_8/sky130_fd_sc_hd__mux2_1_7_X[0]:4 mux_tree_tapbuf_size8_4_sram[0]:8 0.0001033325
21 mux_bottom_ipin_8/sky130_fd_sc_hd__mux2_1_7_X[0]:5 mux_tree_tapbuf_size8_4_sram[0]:7 0.0001033325

*RES
0 mux_bottom_ipin_8\/mux_l3_in_0_:X mux_bottom_ipin_8/sky130_fd_sc_hd__mux2_1_7_X[0]:7 0.152
1 mux_bottom_ipin_8/sky130_fd_sc_hd__mux2_1_7_X[0]:2 mux_bottom_ipin_8\/mux_l4_in_0_:A1 0.152
2 mux_bottom_ipin_8/sky130_fd_sc_hd__mux2_1_7_X[0]:3 mux_bottom_ipin_8/sky130_fd_sc_hd__mux2_1_7_X[0]:2 0.000421875
3 mux_bottom_ipin_8/sky130_fd_sc_hd__mux2_1_7_X[0]:4 mux_bottom_ipin_8/sky130_fd_sc_hd__mux2_1_7_X[0]:3 0.0045
4 mux_bottom_ipin_8/sky130_fd_sc_hd__mux2_1_7_X[0]:6 mux_bottom_ipin_8/sky130_fd_sc_hd__mux2_1_7_X[0]:5 0.0045
5 mux_bottom_ipin_8/sky130_fd_sc_hd__mux2_1_7_X[0]:5 mux_bottom_ipin_8/sky130_fd_sc_hd__mux2_1_7_X[0]:4 0.007508928
6 mux_bottom_ipin_8/sky130_fd_sc_hd__mux2_1_7_X[0]:7 mux_bottom_ipin_8/sky130_fd_sc_hd__mux2_1_7_X[0]:6 0.002957589

*END

*D_NET mux_bottom_ipin_13/sky130_fd_sc_hd__mux2_1_9_X[0] 0.001357947 //LENGTH 11.140 LUMPCC 0.0002705771 DR

*CONN
*I mux_bottom_ipin_13\/mux_l4_in_0_:X O *L 0 *C 80.675 64.600
*I mux_bottom_ipin_13\/sky130_fd_sc_hd__buf_4_0_:A I *L 0.002576 *C 77.915 71.950
*N mux_bottom_ipin_13/sky130_fd_sc_hd__mux2_1_9_X[0]:2 *C 77.915 71.950
*N mux_bottom_ipin_13/sky130_fd_sc_hd__mux2_1_9_X[0]:3 *C 78.170 72.050
*N mux_bottom_ipin_13/sky130_fd_sc_hd__mux2_1_9_X[0]:4 *C 78.200 72.035
*N mux_bottom_ipin_13/sky130_fd_sc_hd__mux2_1_9_X[0]:5 *C 78.200 64.645
*N mux_bottom_ipin_13/sky130_fd_sc_hd__mux2_1_9_X[0]:6 *C 78.245 64.600
*N mux_bottom_ipin_13/sky130_fd_sc_hd__mux2_1_9_X[0]:7 *C 80.638 64.600

*CAP
0 mux_bottom_ipin_13\/mux_l4_in_0_:X 1e-06
1 mux_bottom_ipin_13\/sky130_fd_sc_hd__buf_4_0_:A 1e-06
2 mux_bottom_ipin_13/sky130_fd_sc_hd__mux2_1_9_X[0]:2 6.203783e-05
3 mux_bottom_ipin_13/sky130_fd_sc_hd__mux2_1_9_X[0]:3 3.289507e-05
4 mux_bottom_ipin_13/sky130_fd_sc_hd__mux2_1_9_X[0]:4 0.0003195415
5 mux_bottom_ipin_13/sky130_fd_sc_hd__mux2_1_9_X[0]:5 0.0003195415
6 mux_bottom_ipin_13/sky130_fd_sc_hd__mux2_1_9_X[0]:6 0.0001756769
7 mux_bottom_ipin_13/sky130_fd_sc_hd__mux2_1_9_X[0]:7 0.0001756769
8 mux_bottom_ipin_13/sky130_fd_sc_hd__mux2_1_9_X[0]:5 mux_bottom_ipin_12/sky130_fd_sc_hd__mux2_1_9_X[0]:5 0.0001352886
9 mux_bottom_ipin_13/sky130_fd_sc_hd__mux2_1_9_X[0]:4 mux_bottom_ipin_12/sky130_fd_sc_hd__mux2_1_9_X[0]:4 0.0001352886

*RES
0 mux_bottom_ipin_13\/mux_l4_in_0_:X mux_bottom_ipin_13/sky130_fd_sc_hd__mux2_1_9_X[0]:7 0.152
1 mux_bottom_ipin_13/sky130_fd_sc_hd__mux2_1_9_X[0]:7 mux_bottom_ipin_13/sky130_fd_sc_hd__mux2_1_9_X[0]:6 0.00213616
2 mux_bottom_ipin_13/sky130_fd_sc_hd__mux2_1_9_X[0]:6 mux_bottom_ipin_13/sky130_fd_sc_hd__mux2_1_9_X[0]:5 0.0045
3 mux_bottom_ipin_13/sky130_fd_sc_hd__mux2_1_9_X[0]:5 mux_bottom_ipin_13/sky130_fd_sc_hd__mux2_1_9_X[0]:4 0.006598215
4 mux_bottom_ipin_13/sky130_fd_sc_hd__mux2_1_9_X[0]:3 mux_bottom_ipin_13/sky130_fd_sc_hd__mux2_1_9_X[0]:2 0.000159375
5 mux_bottom_ipin_13/sky130_fd_sc_hd__mux2_1_9_X[0]:4 mux_bottom_ipin_13/sky130_fd_sc_hd__mux2_1_9_X[0]:3 0.0045
6 mux_bottom_ipin_13/sky130_fd_sc_hd__mux2_1_9_X[0]:2 mux_bottom_ipin_13\/sky130_fd_sc_hd__buf_4_0_:A 0.152

*END

*D_NET mux_bottom_ipin_6/sky130_fd_sc_hd__mux2_1_3_X[0] 0.002663309 //LENGTH 19.255 LUMPCC 0.0004626252 DR

*CONN
*I mux_bottom_ipin_6\/mux_l2_in_2_:X O *L 0 *C 93.555 41.820
*I mux_bottom_ipin_6\/mux_l3_in_1_:A1 I *L 0.00198 *C 78.660 45.220
*N mux_bottom_ipin_6/sky130_fd_sc_hd__mux2_1_3_X[0]:2 *C 78.660 45.220
*N mux_bottom_ipin_6/sky130_fd_sc_hd__mux2_1_3_X[0]:3 *C 78.660 45.220
*N mux_bottom_ipin_6/sky130_fd_sc_hd__mux2_1_3_X[0]:4 *C 78.660 44.880
*N mux_bottom_ipin_6/sky130_fd_sc_hd__mux2_1_3_X[0]:5 *C 78.668 44.880
*N mux_bottom_ipin_6/sky130_fd_sc_hd__mux2_1_3_X[0]:6 *C 92.453 44.880
*N mux_bottom_ipin_6/sky130_fd_sc_hd__mux2_1_3_X[0]:7 *C 92.460 44.823
*N mux_bottom_ipin_6/sky130_fd_sc_hd__mux2_1_3_X[0]:8 *C 92.460 41.865
*N mux_bottom_ipin_6/sky130_fd_sc_hd__mux2_1_3_X[0]:9 *C 92.505 41.820
*N mux_bottom_ipin_6/sky130_fd_sc_hd__mux2_1_3_X[0]:10 *C 93.517 41.820

*CAP
0 mux_bottom_ipin_6\/mux_l2_in_2_:X 1e-06
1 mux_bottom_ipin_6\/mux_l3_in_1_:A1 1e-06
2 mux_bottom_ipin_6/sky130_fd_sc_hd__mux2_1_3_X[0]:2 3.091267e-05
3 mux_bottom_ipin_6/sky130_fd_sc_hd__mux2_1_3_X[0]:3 5.016726e-05
4 mux_bottom_ipin_6/sky130_fd_sc_hd__mux2_1_3_X[0]:4 5.400015e-05
5 mux_bottom_ipin_6/sky130_fd_sc_hd__mux2_1_3_X[0]:5 0.0007067358
6 mux_bottom_ipin_6/sky130_fd_sc_hd__mux2_1_3_X[0]:6 0.0007067358
7 mux_bottom_ipin_6/sky130_fd_sc_hd__mux2_1_3_X[0]:7 0.0002187797
8 mux_bottom_ipin_6/sky130_fd_sc_hd__mux2_1_3_X[0]:8 0.0002187797
9 mux_bottom_ipin_6/sky130_fd_sc_hd__mux2_1_3_X[0]:9 0.0001062864
10 mux_bottom_ipin_6/sky130_fd_sc_hd__mux2_1_3_X[0]:10 0.0001062864
11 mux_bottom_ipin_6/sky130_fd_sc_hd__mux2_1_3_X[0]:8 chanx_left_in[15]:8 1.780779e-07
12 mux_bottom_ipin_6/sky130_fd_sc_hd__mux2_1_3_X[0]:7 chanx_left_in[15]:7 1.780779e-07
13 mux_bottom_ipin_6/sky130_fd_sc_hd__mux2_1_3_X[0]:6 chanx_left_in[15]:9 9.783704e-05
14 mux_bottom_ipin_6/sky130_fd_sc_hd__mux2_1_3_X[0]:5 chanx_left_in[15]:14 9.783704e-05
15 mux_bottom_ipin_6/sky130_fd_sc_hd__mux2_1_3_X[0]:6 mux_tree_tapbuf_size8_6_sram[2]:20 0.0001332975
16 mux_bottom_ipin_6/sky130_fd_sc_hd__mux2_1_3_X[0]:5 mux_tree_tapbuf_size8_6_sram[2]:19 0.0001332975

*RES
0 mux_bottom_ipin_6\/mux_l2_in_2_:X mux_bottom_ipin_6/sky130_fd_sc_hd__mux2_1_3_X[0]:10 0.152
1 mux_bottom_ipin_6/sky130_fd_sc_hd__mux2_1_3_X[0]:10 mux_bottom_ipin_6/sky130_fd_sc_hd__mux2_1_3_X[0]:9 0.0009040179
2 mux_bottom_ipin_6/sky130_fd_sc_hd__mux2_1_3_X[0]:9 mux_bottom_ipin_6/sky130_fd_sc_hd__mux2_1_3_X[0]:8 0.0045
3 mux_bottom_ipin_6/sky130_fd_sc_hd__mux2_1_3_X[0]:8 mux_bottom_ipin_6/sky130_fd_sc_hd__mux2_1_3_X[0]:7 0.002640625
4 mux_bottom_ipin_6/sky130_fd_sc_hd__mux2_1_3_X[0]:7 mux_bottom_ipin_6/sky130_fd_sc_hd__mux2_1_3_X[0]:6 0.00341
5 mux_bottom_ipin_6/sky130_fd_sc_hd__mux2_1_3_X[0]:6 mux_bottom_ipin_6/sky130_fd_sc_hd__mux2_1_3_X[0]:5 0.00215965
6 mux_bottom_ipin_6/sky130_fd_sc_hd__mux2_1_3_X[0]:4 mux_bottom_ipin_6/sky130_fd_sc_hd__mux2_1_3_X[0]:3 0.0001634615
7 mux_bottom_ipin_6/sky130_fd_sc_hd__mux2_1_3_X[0]:5 mux_bottom_ipin_6/sky130_fd_sc_hd__mux2_1_3_X[0]:4 0.00341
8 mux_bottom_ipin_6/sky130_fd_sc_hd__mux2_1_3_X[0]:2 mux_bottom_ipin_6\/mux_l3_in_1_:A1 0.152
9 mux_bottom_ipin_6/sky130_fd_sc_hd__mux2_1_3_X[0]:3 mux_bottom_ipin_6/sky130_fd_sc_hd__mux2_1_3_X[0]:2 0.0045

*END

*D_NET mux_bottom_ipin_11/sky130_fd_sc_hd__mux2_1_7_X[0] 0.004372309 //LENGTH 36.480 LUMPCC 0.0006896744 DR

*CONN
*I mux_bottom_ipin_11\/mux_l4_in_0_:X O *L 0 *C 16.735 39.780
*I mux_bottom_ipin_11\/sky130_fd_sc_hd__buf_4_0_:A I *L 0.002576 *C 18.960 71.905
*N mux_bottom_ipin_11/sky130_fd_sc_hd__mux2_1_7_X[0]:2 *C 18.960 71.905
*N mux_bottom_ipin_11/sky130_fd_sc_hd__mux2_1_7_X[0]:3 *C 18.860 72.420
*N mux_bottom_ipin_11/sky130_fd_sc_hd__mux2_1_7_X[0]:4 *C 16.605 72.420
*N mux_bottom_ipin_11/sky130_fd_sc_hd__mux2_1_7_X[0]:5 *C 16.560 72.375
*N mux_bottom_ipin_11/sky130_fd_sc_hd__mux2_1_7_X[0]:6 *C 16.560 39.825
*N mux_bottom_ipin_11/sky130_fd_sc_hd__mux2_1_7_X[0]:7 *C 16.560 39.780
*N mux_bottom_ipin_11/sky130_fd_sc_hd__mux2_1_7_X[0]:8 *C 16.735 39.780

*CAP
0 mux_bottom_ipin_11\/mux_l4_in_0_:X 1e-06
1 mux_bottom_ipin_11\/sky130_fd_sc_hd__buf_4_0_:A 1e-06
2 mux_bottom_ipin_11/sky130_fd_sc_hd__mux2_1_7_X[0]:2 6.407629e-05
3 mux_bottom_ipin_11/sky130_fd_sc_hd__mux2_1_7_X[0]:3 0.0002146884
4 mux_bottom_ipin_11/sky130_fd_sc_hd__mux2_1_7_X[0]:4 0.0001784745
5 mux_bottom_ipin_11/sky130_fd_sc_hd__mux2_1_7_X[0]:5 0.001552962
6 mux_bottom_ipin_11/sky130_fd_sc_hd__mux2_1_7_X[0]:6 0.001552962
7 mux_bottom_ipin_11/sky130_fd_sc_hd__mux2_1_7_X[0]:7 6.045771e-05
8 mux_bottom_ipin_11/sky130_fd_sc_hd__mux2_1_7_X[0]:8 5.701343e-05
9 mux_bottom_ipin_11/sky130_fd_sc_hd__mux2_1_7_X[0]:5 mux_bottom_ipin_9/sky130_fd_sc_hd__mux2_1_2_X[0]:3 0.000301393
10 mux_bottom_ipin_11/sky130_fd_sc_hd__mux2_1_7_X[0]:6 mux_bottom_ipin_9/sky130_fd_sc_hd__mux2_1_2_X[0]:4 0.000301393
11 mux_bottom_ipin_11/sky130_fd_sc_hd__mux2_1_7_X[0]:5 mux_bottom_ipin_9/sky130_fd_sc_hd__mux2_1_6_X[0]:4 4.344414e-05
12 mux_bottom_ipin_11/sky130_fd_sc_hd__mux2_1_7_X[0]:6 mux_bottom_ipin_9/sky130_fd_sc_hd__mux2_1_6_X[0]:5 4.344414e-05

*RES
0 mux_bottom_ipin_11\/mux_l4_in_0_:X mux_bottom_ipin_11/sky130_fd_sc_hd__mux2_1_7_X[0]:8 0.152
1 mux_bottom_ipin_11/sky130_fd_sc_hd__mux2_1_7_X[0]:2 mux_bottom_ipin_11\/sky130_fd_sc_hd__buf_4_0_:A 0.152
2 mux_bottom_ipin_11/sky130_fd_sc_hd__mux2_1_7_X[0]:4 mux_bottom_ipin_11/sky130_fd_sc_hd__mux2_1_7_X[0]:3 0.002013393
3 mux_bottom_ipin_11/sky130_fd_sc_hd__mux2_1_7_X[0]:5 mux_bottom_ipin_11/sky130_fd_sc_hd__mux2_1_7_X[0]:4 0.0045
4 mux_bottom_ipin_11/sky130_fd_sc_hd__mux2_1_7_X[0]:7 mux_bottom_ipin_11/sky130_fd_sc_hd__mux2_1_7_X[0]:6 0.0045
5 mux_bottom_ipin_11/sky130_fd_sc_hd__mux2_1_7_X[0]:6 mux_bottom_ipin_11/sky130_fd_sc_hd__mux2_1_7_X[0]:5 0.0290625
6 mux_bottom_ipin_11/sky130_fd_sc_hd__mux2_1_7_X[0]:8 mux_bottom_ipin_11/sky130_fd_sc_hd__mux2_1_7_X[0]:7 9.51087e-05
7 mux_bottom_ipin_11/sky130_fd_sc_hd__mux2_1_7_X[0]:3 mux_bottom_ipin_11/sky130_fd_sc_hd__mux2_1_7_X[0]:2 0.0004598215

*END

*D_NET ropt_net_143 0.001022558 //LENGTH 8.675 LUMPCC 0 DR

*CONN
*I FTB_8__7:X O *L 0 *C 97.980 25.500
*I ropt_mt_inst_740:A I *L 0.001766 *C 97.825 17.680
*N ropt_net_143:2 *C 97.825 17.680
*N ropt_net_143:3 *C 97.980 17.680
*N ropt_net_143:4 *C 97.980 17.725
*N ropt_net_143:5 *C 97.980 25.115
*N ropt_net_143:6 *C 97.980 25.160
*N ropt_net_143:7 *C 97.980 25.500

*CAP
0 FTB_8__7:X 1e-06
1 ropt_mt_inst_740:A 1e-06
2 ropt_net_143:2 5.368127e-05
3 ropt_net_143:3 5.339887e-05
4 ropt_net_143:4 0.0003910685
5 ropt_net_143:5 0.0003910685
6 ropt_net_143:6 6.788984e-05
7 ropt_net_143:7 6.34511e-05

*RES
0 FTB_8__7:X ropt_net_143:7 0.152
1 ropt_net_143:2 ropt_mt_inst_740:A 0.152
2 ropt_net_143:3 ropt_net_143:2 8.423914e-05