*SPEF "1481-1998"
*DESIGN "cbx_1__2_"
*DATE "Tue Oct 27 11:35:06 2020"
*
*
*
*
*DIVIDER /
*DELIMITER :
*T_UNIT 1 NS
*C_UNIT 1 PF
*R_UNIT 1 KOHM
*L_UNIT 1 HENRY

// XY_UNIT 1 UM
// PARASITIC_TECH nominal at 25.000 degree

*PORTS
prog_clk[0] I *C 2.300 0.680
chanx_left_in[0] I *C 0.690 32.640
chanx_left_in[1] I *C 0.690 21.760
chanx_left_in[2] I *C 0.690 14.960
chanx_left_in[3] I *C 0.690 51.680
chanx_left_in[4] I *C 0.690 17.680
chanx_left_in[5] I *C 0.690 40.800
chanx_left_in[6] I *C 0.690 50.320
chanx_left_in[7] I *C 0.690 42.160
chanx_left_in[8] I *C 0.690 48.960
chanx_left_in[9] I *C 0.690 25.840
chanx_left_in[10] I *C 0.690 4.080
chanx_left_in[11] I *C 0.690 43.520
chanx_left_in[12] I *C 0.690 5.440
chanx_left_in[13] I *C 0.690 23.120
chanx_left_in[14] I *C 0.690 47.600
chanx_left_in[15] I *C 0.690 24.480
chanx_left_in[16] I *C 0.690 27.200
chanx_left_in[17] I *C 0.690 44.880
chanx_left_in[18] I *C 0.690 46.240
chanx_left_in[19] I *C 0.690 6.800
chanx_right_in[0] I *C 76.590 29.920
chanx_right_in[1] I *C 76.590 20.400
chanx_right_in[2] I *C 76.590 12.240
chanx_right_in[3] I *C 76.590 6.800
chanx_right_in[4] I *C 76.590 10.880
chanx_right_in[5] I *C 76.590 27.200
chanx_right_in[6] I *C 76.590 21.760
chanx_right_in[7] I *C 76.590 25.840
chanx_right_in[8] I *C 76.590 50.320
chanx_right_in[9] I *C 76.590 23.120
chanx_right_in[10] I *C 76.590 34.000
chanx_right_in[11] I *C 76.590 42.160
chanx_right_in[12] I *C 76.590 40.800
chanx_right_in[13] I *C 76.590 48.960
chanx_right_in[14] I *C 76.590 43.520
chanx_right_in[15] I *C 76.590 24.480
chanx_right_in[16] I *C 76.590 8.160
chanx_right_in[17] I *C 76.590 47.600
chanx_right_in[18] I *C 76.590 44.880
chanx_right_in[19] I *C 76.590 46.240
ccff_head[0] I *C 76.590 53.040
chanx_left_out[0] O *C 0.690 55.760
chanx_left_out[1] O *C 0.690 38.080
chanx_left_out[2] O *C 0.690 57.120
chanx_left_out[3] O *C 0.690 53.040
chanx_left_out[4] O *C 0.690 54.400
chanx_left_out[5] O *C 0.690 13.600
chanx_left_out[6] O *C 0.690 8.160
chanx_left_out[7] O *C 0.690 58.480
chanx_left_out[8] O *C 0.690 39.440
chanx_left_out[9] O *C 0.690 12.240
chanx_left_out[10] O *C 0.690 36.040
chanx_left_out[11] O *C 0.690 20.400
chanx_left_out[12] O *C 0.690 31.280
chanx_left_out[13] O *C 0.690 10.880
chanx_left_out[14] O *C 0.690 9.520
chanx_left_out[15] O *C 0.690 28.560
chanx_left_out[16] O *C 0.690 16.320
chanx_left_out[17] O *C 0.690 34.000
chanx_left_out[18] O *C 0.690 29.920
chanx_left_out[19] O *C 0.690 19.040
chanx_right_out[0] O *C 76.590 14.960
chanx_right_out[1] O *C 76.590 5.440
chanx_right_out[2] O *C 76.590 17.680
chanx_right_out[3] O *C 76.590 19.040
chanx_right_out[4] O *C 76.590 55.760
chanx_right_out[5] O *C 76.590 36.720
chanx_right_out[6] O *C 76.590 35.360
chanx_right_out[7] O *C 76.590 31.280
chanx_right_out[8] O *C 76.590 32.640
chanx_right_out[9] O *C 76.590 13.600
chanx_right_out[10] O *C 76.590 58.480
chanx_right_out[11] O *C 76.590 28.560
chanx_right_out[12] O *C 76.590 54.400
chanx_right_out[13] O *C 76.590 38.080
chanx_right_out[14] O *C 76.590 16.320
chanx_right_out[15] O *C 76.590 51.680
chanx_right_out[16] O *C 76.590 57.120
chanx_right_out[17] O *C 76.590 9.520
chanx_right_out[18] O *C 76.590 4.080
chanx_right_out[19] O *C 76.590 39.440
top_grid_pin_0_[0] O *C 45.540 64.600
ccff_tail[0] O *C 44.620 64.600
VDD I *C 38.640 32.640
VSS I *C 38.640 32.640

*D_NET chanx_left_in[0] 0.01328978 //LENGTH 85.830 LUMPCC 0.006049724 DR

*CONN
*P chanx_left_in[0] I *L 0.29796 *C 1.230 32.640
*I mux_bottom_ipin_0\/mux_l1_in_0_:A1 I *L 0.00198 *C 60.625 28.900
*I BUFT_P_102:A I *L 0.001767 *C 65.780 14.960
*N chanx_left_in[0]:3 *C 65.780 14.960
*N chanx_left_in[0]:4 *C 65.780 15.005
*N chanx_left_in[0]:5 *C 65.780 19.663
*N chanx_left_in[0]:6 *C 65.773 19.720
*N chanx_left_in[0]:7 *C 61.648 19.720
*N chanx_left_in[0]:8 *C 61.640 19.777
*N chanx_left_in[0]:9 *C 61.640 28.900
*N chanx_left_in[0]:10 *C 60.625 28.900
*N chanx_left_in[0]:11 *C 60.720 28.900
*N chanx_left_in[0]:12 *C 60.720 33.263
*N chanx_left_in[0]:13 *C 60.713 33.320
*N chanx_left_in[0]:14 *C 8.280 33.320
*N chanx_left_in[0]:15 *C 8.280 32.640

*CAP
0 chanx_left_in[0] 0.0003685178
1 mux_bottom_ipin_0\/mux_l1_in_0_:A1 1e-06
2 BUFT_P_102:A 1e-06
3 chanx_left_in[0]:3 3.772347e-05
4 chanx_left_in[0]:4 0.0003453237
5 chanx_left_in[0]:5 0.0003453237
6 chanx_left_in[0]:6 0.0002985171
7 chanx_left_in[0]:7 0.0002985171
8 chanx_left_in[0]:8 0.000471995
9 chanx_left_in[0]:9 0.0005253073
10 chanx_left_in[0]:10 2.843869e-05
11 chanx_left_in[0]:11 0.0003031129
12 chanx_left_in[0]:12 0.0002498007
13 chanx_left_in[0]:13 0.001739799
14 chanx_left_in[0]:14 0.00179848
15 chanx_left_in[0]:15 0.0004271987
16 chanx_left_in[0]:8 chanx_right_in[0]:20 2.267341e-05
17 chanx_left_in[0]:11 chanx_right_in[0]:20 3.475044e-06
18 chanx_left_in[0]:11 chanx_right_in[0]:18 7.428369e-06
19 chanx_left_in[0]:11 chanx_right_in[0]:21 9.350918e-06
20 chanx_left_in[0]:12 chanx_right_in[0]:17 9.350918e-06
21 chanx_left_in[0]:12 chanx_right_in[0]:21 3.475044e-06
22 chanx_left_in[0]:13 chanx_right_in[0]:16 0.001094919
23 chanx_left_in[0]:9 chanx_right_in[0]:19 7.428369e-06
24 chanx_left_in[0]:9 chanx_right_in[0]:21 2.267341e-05
25 chanx_left_in[0]:14 chanx_right_in[0]:15 0.001094919
26 chanx_left_in[0]:13 chanx_right_in[10] 0.001415892
27 chanx_left_in[0]:14 chanx_right_in[10]:17 0.001415892
28 chanx_left_in[0] chanx_left_out[17] 0.0001564117
29 chanx_left_in[0]:13 chanx_left_out[17]:2 0.0003147117
30 chanx_left_in[0]:15 chanx_left_out[17]:2 0.0001564117
31 chanx_left_in[0]:14 chanx_left_out[17] 0.0003147117

*RES
0 chanx_left_in[0] chanx_left_in[0]:15 0.0011045
1 chanx_left_in[0]:8 chanx_left_in[0]:7 0.00341
2 chanx_left_in[0]:7 chanx_left_in[0]:6 0.00064625
3 chanx_left_in[0]:5 chanx_left_in[0]:4 0.004158482
4 chanx_left_in[0]:6 chanx_left_in[0]:5 0.00341
5 chanx_left_in[0]:3 BUFT_P_102:A 0.152
6 chanx_left_in[0]:4 chanx_left_in[0]:3 0.0045
7 chanx_left_in[0]:10 mux_bottom_ipin_0\/mux_l1_in_0_:A1 0.152
8 chanx_left_in[0]:11 chanx_left_in[0]:10 0.0045
9 chanx_left_in[0]:11 chanx_left_in[0]:9 0.0008214285
10 chanx_left_in[0]:12 chanx_left_in[0]:11 0.003895089
11 chanx_left_in[0]:13 chanx_left_in[0]:12 0.00341
12 chanx_left_in[0]:9 chanx_left_in[0]:8 0.008145089
13 chanx_left_in[0]:15 chanx_left_in[0]:14 0.0001065333
14 chanx_left_in[0]:14 chanx_left_in[0]:13 0.008214424

*END

*D_NET chanx_right_in[13] 0.01375577 //LENGTH 113.205 LUMPCC 0.001744073 DR

*CONN
*P chanx_right_in[13] I *L 0.29796 *C 76.050 48.960
*I ropt_mt_inst_732:A I *L 0.001767 *C 3.220 12.240
*N chanx_right_in[13]:2 *C 3.258 12.240
*N chanx_right_in[13]:3 *C 5.935 12.240
*N chanx_right_in[13]:4 *C 5.980 12.285
*N chanx_right_in[13]:5 *C 5.980 16.955
*N chanx_right_in[13]:6 *C 6.025 17.000
*N chanx_right_in[13]:7 *C 15.180 17.000
*N chanx_right_in[13]:8 *C 15.180 18.020
*N chanx_right_in[13]:9 *C 60.260 18.020
*N chanx_right_in[13]:10 *C 60.260 17.340
*N chanx_right_in[13]:11 *C 66.700 17.340
*N chanx_right_in[13]:12 *C 66.700 18.020
*N chanx_right_in[13]:13 *C 74.475 18.020
*N chanx_right_in[13]:14 *C 74.520 18.065
*N chanx_right_in[13]:15 *C 74.520 48.903
*N chanx_right_in[13]:16 *C 74.528 48.960

*CAP
0 chanx_right_in[13] 0.0001305682
1 ropt_mt_inst_732:A 1e-06
2 chanx_right_in[13]:2 5.975487e-05
3 chanx_right_in[13]:3 5.975487e-05
4 chanx_right_in[13]:4 0.0002514317
5 chanx_right_in[13]:5 0.0002514317
6 chanx_right_in[13]:6 0.0005684154
7 chanx_right_in[13]:7 0.0006290154
8 chanx_right_in[13]:8 0.002379099
9 chanx_right_in[13]:9 0.002363322
10 chanx_right_in[13]:10 0.0005548663
11 chanx_right_in[13]:11 0.000552209
12 chanx_right_in[13]:12 0.0004239384
13 chanx_right_in[13]:13 0.0003817732
14 chanx_right_in[13]:14 0.001637277
15 chanx_right_in[13]:15 0.001637277
16 chanx_right_in[13]:16 0.0001305682
17 chanx_right_in[13]:4 chanx_right_in[5]:4 5.150724e-05
18 chanx_right_in[13]:6 chanx_right_in[5]:6 4.601311e-05
19 chanx_right_in[13]:6 chanx_right_in[5]:8 8.368493e-07
20 chanx_right_in[13]:5 chanx_right_in[5]:5 5.150724e-05
21 chanx_right_in[13]:7 chanx_right_in[5]:7 4.636128e-05
22 chanx_right_in[13]:7 chanx_right_in[5]:9 8.368493e-07
23 chanx_right_in[13]:8 chanx_right_in[5]:8 0.0002450144
24 chanx_right_in[13]:8 chanx_right_in[5]:12 9.896493e-05
25 chanx_right_in[13]:9 chanx_right_in[5]:9 0.0002446663
26 chanx_right_in[13]:9 chanx_right_in[5]:13 9.896493e-05
27 chanx_right_in[13]:2 ropt_net_208:5 8.195538e-05
28 chanx_right_in[13]:3 ropt_net_208:4 8.195538e-05
29 chanx_right_in[13]:4 ropt_net_208:6 5.02992e-06
30 chanx_right_in[13]:5 ropt_net_208:7 5.02992e-06
31 chanx_right_in[13]:2 ropt_net_209:7 4.005529e-05
32 chanx_right_in[13]:3 ropt_net_209:6 4.005529e-05
33 chanx_right_in[13]:13 ropt_net_197:3 0.0001655371
34 chanx_right_in[13]:14 ropt_net_197:4 4.579562e-06
35 chanx_right_in[13]:15 ropt_net_197:5 4.579562e-06
36 chanx_right_in[13]:12 ropt_net_197:2 0.0001655371
37 chanx_right_in[13]:14 ropt_net_198:5 0.0001325427
38 chanx_right_in[13]:15 ropt_net_198:6 0.0001325427

*RES
0 chanx_right_in[13] chanx_right_in[13]:16 0.000238525
1 chanx_right_in[13]:2 ropt_mt_inst_732:A 0.152
2 chanx_right_in[13]:3 chanx_right_in[13]:2 0.002390625
3 chanx_right_in[13]:4 chanx_right_in[13]:3 0.0045
4 chanx_right_in[13]:6 chanx_right_in[13]:5 0.0045
5 chanx_right_in[13]:5 chanx_right_in[13]:4 0.004169643
6 chanx_right_in[13]:13 chanx_right_in[13]:12 0.006941964
7 chanx_right_in[13]:14 chanx_right_in[13]:13 0.0045
8 chanx_right_in[13]:15 chanx_right_in[13]:14 0.02753349
9 chanx_right_in[13]:16 chanx_right_in[13]:15 0.00341
10 chanx_right_in[13]:7 chanx_right_in[13]:6 0.008174107
11 chanx_right_in[13]:8 chanx_right_in[13]:7 0.0009107143
12 chanx_right_in[13]:9 chanx_right_in[13]:8 0.04025001
13 chanx_right_in[13]:10 chanx_right_in[13]:9 0.0006071429
14 chanx_right_in[13]:11 chanx_right_in[13]:10 0.00575
15 chanx_right_in[13]:12 chanx_right_in[13]:11 0.0006071429

*END

*D_NET chanx_right_in[18] 0.01022449 //LENGTH 88.675 LUMPCC 9.092587e-05 DR

*CONN
*P chanx_right_in[18] I *L 0.29796 *C 76.050 44.880
*I ropt_mt_inst_731:A I *L 0.001767 *C 3.220 31.280
*N chanx_right_in[18]:2 *C 3.220 31.280
*N chanx_right_in[18]:3 *C 3.220 30.940
*N chanx_right_in[18]:4 *C 16.975 30.940
*N chanx_right_in[18]:5 *C 17.020 30.985
*N chanx_right_in[18]:6 *C 17.020 33.955
*N chanx_right_in[18]:7 *C 17.065 34.000
*N chanx_right_in[18]:8 *C 20.655 34.000
*N chanx_right_in[18]:9 *C 20.700 34.045
*N chanx_right_in[18]:10 *C 20.700 44.823
*N chanx_right_in[18]:11 *C 20.707 44.880
*N chanx_right_in[18]:12 *C 70.535 44.880

*CAP
0 chanx_right_in[18] 0.0003681816
1 ropt_mt_inst_731:A 1e-06
2 chanx_right_in[18]:2 5.907375e-05
3 chanx_right_in[18]:3 0.0008237149
4 chanx_right_in[18]:4 0.0007946149
5 chanx_right_in[18]:5 0.0001713869
6 chanx_right_in[18]:6 0.0001713869
7 chanx_right_in[18]:7 0.0003540907
8 chanx_right_in[18]:8 0.0003540907
9 chanx_right_in[18]:9 0.000568667
10 chanx_right_in[18]:10 0.000568667
11 chanx_right_in[18]:11 0.002765256
12 chanx_right_in[18]:12 0.003133437
13 chanx_right_in[18]:4 ropt_net_206:2 4.546294e-05
14 chanx_right_in[18]:3 ropt_net_206:3 4.546294e-05

*RES
0 chanx_right_in[18] chanx_right_in[18]:12 0.0008640166
1 chanx_right_in[18]:2 ropt_mt_inst_731:A 0.152
2 chanx_right_in[18]:4 chanx_right_in[18]:3 0.01228125
3 chanx_right_in[18]:5 chanx_right_in[18]:4 0.0045
4 chanx_right_in[18]:7 chanx_right_in[18]:6 0.0045
5 chanx_right_in[18]:6 chanx_right_in[18]:5 0.002651786
6 chanx_right_in[18]:8 chanx_right_in[18]:7 0.003205357
7 chanx_right_in[18]:9 chanx_right_in[18]:8 0.0045
8 chanx_right_in[18]:10 chanx_right_in[18]:9 0.009622768
9 chanx_right_in[18]:11 chanx_right_in[18]:10 0.00341
10 chanx_right_in[18]:3 chanx_right_in[18]:2 0.0003035715
11 chanx_right_in[18]:12 chanx_right_in[18]:11 0.007806308

*END

*D_NET prog_clk[0] 0.01454362 //LENGTH 109.543 LUMPCC 0.003710037 DR

*CONN
*P prog_clk[0] I *L 0.29796 *C 2.300 1.290
*I mem_bottom_ipin_0\/sky130_fd_sc_hd__dfxbp_1_2_:CLK I *L 0.001922 *C 27.405 31.280
*I mem_bottom_ipin_0\/sky130_fd_sc_hd__dfxbp_1_3_:CLK I *L 0.001922 *C 35.225 39.440
*I mem_bottom_ipin_0\/sky130_fd_sc_hd__dfxbp_1_0_:CLK I *L 0.001922 *C 53.625 53.040
*I mem_bottom_ipin_0\/sky130_fd_sc_hd__dfxbp_1_1_:CLK I *L 0.001922 *C 51.325 44.880
*N prog_clk[0]:5 *C 51.325 44.880
*N prog_clk[0]:6 *C 53.588 53.040
*N prog_clk[0]:7 *C 52.945 53.040
*N prog_clk[0]:8 *C 52.900 52.995
*N prog_clk[0]:9 *C 52.900 48.338
*N prog_clk[0]:10 *C 52.893 48.280
*N prog_clk[0]:11 *C 51.528 48.280
*N prog_clk[0]:12 *C 51.520 48.223
*N prog_clk[0]:13 *C 51.520 44.585
*N prog_clk[0]:14 *C 51.475 44.547
*N prog_clk[0]:15 *C 50.185 44.540
*N prog_clk[0]:16 *C 50.140 44.495
*N prog_clk[0]:17 *C 50.140 41.538
*N prog_clk[0]:18 *C 50.133 41.480
*N prog_clk[0]:19 *C 34.047 41.480
*N prog_clk[0]:20 *C 34.040 41.422
*N prog_clk[0]:21 *C 35.188 39.440
*N prog_clk[0]:22 *C 34.040 39.440
*N prog_clk[0]:23 *C 34.040 39.100
*N prog_clk[0]:24 *C 34.040 39.100
*N prog_clk[0]:25 *C 34.040 31.338
*N prog_clk[0]:26 *C 34.032 31.280
*N prog_clk[0]:27 *C 27.405 31.280
*N prog_clk[0]:28 *C 27.600 31.280
*N prog_clk[0]:29 *C 27.600 31.280
*N prog_clk[0]:30 *C 27.600 31.280
*N prog_clk[0]:31 *C 27.600 30.600
*N prog_clk[0]:32 *C 2.308 30.600
*N prog_clk[0]:33 *C 2.300 30.543

*CAP
0 prog_clk[0] 0.001468531
1 mem_bottom_ipin_0\/sky130_fd_sc_hd__dfxbp_1_2_:CLK 1e-06
2 mem_bottom_ipin_0\/sky130_fd_sc_hd__dfxbp_1_3_:CLK 1e-06
3 mem_bottom_ipin_0\/sky130_fd_sc_hd__dfxbp_1_0_:CLK 1e-06
4 mem_bottom_ipin_0\/sky130_fd_sc_hd__dfxbp_1_1_:CLK 1e-06
5 prog_clk[0]:5 6.399547e-05
6 prog_clk[0]:6 5.504536e-05
7 prog_clk[0]:7 5.504536e-05
8 prog_clk[0]:8 0.0002484614
9 prog_clk[0]:9 0.0002484614
10 prog_clk[0]:10 0.0001147731
11 prog_clk[0]:11 0.0001147731
12 prog_clk[0]:12 0.0002361227
13 prog_clk[0]:13 0.0002361227
14 prog_clk[0]:14 0.0001488525
15 prog_clk[0]:15 0.0001204618
16 prog_clk[0]:16 0.0002150236
17 prog_clk[0]:17 0.0002150236
18 prog_clk[0]:18 0.0007170847
19 prog_clk[0]:19 0.0007170847
20 prog_clk[0]:20 9.612775e-05
21 prog_clk[0]:21 7.815095e-05
22 prog_clk[0]:22 0.0001056411
23 prog_clk[0]:23 5.895066e-05
24 prog_clk[0]:24 0.0004381259
25 prog_clk[0]:25 0.0003122237
26 prog_clk[0]:26 0.0002625974
27 prog_clk[0]:27 5.435097e-05
28 prog_clk[0]:28 5.461738e-05
29 prog_clk[0]:29 4.198904e-05
30 prog_clk[0]:30 0.0003135558
31 prog_clk[0]:31 0.001310407
32 prog_clk[0]:32 0.001259448
33 prog_clk[0]:33 0.001468531
34 prog_clk[0]:30 chanx_right_in[0]:15 0.0003842288
35 prog_clk[0]:26 chanx_right_in[0]:16 0.0003842288
36 prog_clk[0]:32 chanx_right_in[0]:15 0.0003077617
37 prog_clk[0]:31 chanx_right_in[0]:16 0.0003077617
38 prog_clk[0]:19 chanx_right_in[11]:7 0.0002514087
39 prog_clk[0]:18 chanx_right_in[11]:8 0.0002514087
40 prog_clk[0]:24 mux_bottom_ipin_0/sky130_fd_sc_hd__mux2_1_8_X[0]:4 0.0002093352
41 prog_clk[0]:24 mux_bottom_ipin_0/sky130_fd_sc_hd__mux2_1_8_X[0]:5 6.820044e-05
42 prog_clk[0]:20 mux_bottom_ipin_0/sky130_fd_sc_hd__mux2_1_8_X[0]:4 6.820044e-05
43 prog_clk[0]:25 mux_bottom_ipin_0/sky130_fd_sc_hd__mux2_1_8_X[0]:5 0.0002093352
44 prog_clk[0] ropt_net_174:4 9.988241e-05
45 prog_clk[0]:33 ropt_net_174:3 9.988241e-05
46 prog_clk[0]:32 chanx_left_out[18] 0.0005342012
47 prog_clk[0]:31 chanx_left_out[18]:2 0.0005342012

*RES
0 prog_clk[0] prog_clk[0]:33 0.02611831
1 prog_clk[0]:23 prog_clk[0]:22 0.0003035715
2 prog_clk[0]:24 prog_clk[0]:23 0.0045
3 prog_clk[0]:24 prog_clk[0]:20 0.002073661
4 prog_clk[0]:21 mem_bottom_ipin_0\/sky130_fd_sc_hd__dfxbp_1_3_:CLK 0.152
5 prog_clk[0]:20 prog_clk[0]:19 0.00341
6 prog_clk[0]:19 prog_clk[0]:18 0.002519983
7 prog_clk[0]:17 prog_clk[0]:16 0.002640625
8 prog_clk[0]:18 prog_clk[0]:17 0.00341
9 prog_clk[0]:15 prog_clk[0]:14 0.001151786
10 prog_clk[0]:16 prog_clk[0]:15 0.0045
11 prog_clk[0]:14 prog_clk[0]:13 0.0045
12 prog_clk[0]:14 prog_clk[0]:5 0.0001807065
13 prog_clk[0]:13 prog_clk[0]:12 0.003247767
14 prog_clk[0]:12 prog_clk[0]:11 0.00341
15 prog_clk[0]:11 prog_clk[0]:10 0.00021385
16 prog_clk[0]:9 prog_clk[0]:8 0.004158482
17 prog_clk[0]:10 prog_clk[0]:9 0.00341
18 prog_clk[0]:7 prog_clk[0]:6 0.0005736608
19 prog_clk[0]:8 prog_clk[0]:7 0.0045
20 prog_clk[0]:6 mem_bottom_ipin_0\/sky130_fd_sc_hd__dfxbp_1_0_:CLK 0.152
21 prog_clk[0]:29 prog_clk[0]:28 0.0045
22 prog_clk[0]:30 prog_clk[0]:29 0.00341
23 prog_clk[0]:30 prog_clk[0]:26 0.001007758
24 prog_clk[0]:28 prog_clk[0]:27 0.0001059783
25 prog_clk[0]:27 mem_bottom_ipin_0\/sky130_fd_sc_hd__dfxbp_1_2_:CLK 0.152
26 prog_clk[0]:5 mem_bottom_ipin_0\/sky130_fd_sc_hd__dfxbp_1_1_:CLK 0.152
27 prog_clk[0]:25 prog_clk[0]:24 0.006930804
28 prog_clk[0]:26 prog_clk[0]:25 0.00341
29 prog_clk[0]:33 prog_clk[0]:32 0.00341
30 prog_clk[0]:32 prog_clk[0]:31 0.003962492
31 prog_clk[0]:22 prog_clk[0]:21 0.001024554
32 prog_clk[0]:31 prog_clk[0]:30 0.0001065333

*END

*D_NET ropt_net_209 0.0007439216 //LENGTH 6.650 LUMPCC 8.011058e-05 DR

*CONN
*I ropt_mt_inst_732:X O *L 0 *C 4.140 11.560
*I ropt_mt_inst_787:A I *L 0.001766 *C 7.820 9.520
*N ropt_net_209:2 *C 7.783 9.520
*N ropt_net_209:3 *C 6.025 9.520
*N ropt_net_209:4 *C 5.980 9.565
*N ropt_net_209:5 *C 5.980 11.515
*N ropt_net_209:6 *C 5.935 11.560
*N ropt_net_209:7 *C 4.178 11.560

*CAP
0 ropt_mt_inst_732:X 1e-06
1 ropt_mt_inst_787:A 1e-06
2 ropt_net_209:2 0.0001149559
3 ropt_net_209:3 0.0001149559
4 ropt_net_209:4 0.0001188528
5 ropt_net_209:5 0.0001188528
6 ropt_net_209:6 9.709682e-05
7 ropt_net_209:7 9.709682e-05
8 ropt_net_209:7 chanx_right_in[13]:2 4.005529e-05
9 ropt_net_209:6 chanx_right_in[13]:3 4.005529e-05

*RES
0 ropt_mt_inst_732:X ropt_net_209:7 0.152
1 ropt_net_209:7 ropt_net_209:6 0.001569196
2 ropt_net_209:6 ropt_net_209:5 0.0045
3 ropt_net_209:5 ropt_net_209:4 0.001741072
4 ropt_net_209:3 ropt_net_209:2 0.001569197
5 ropt_net_209:4 ropt_net_209:3 0.0045
6 ropt_net_209:2 ropt_mt_inst_787:A 0.152

*END

*D_NET ropt_net_214 0.001371063 //LENGTH 9.740 LUMPCC 0.0002445881 DR

*CONN
*I ropt_mt_inst_738:X O *L 0 *C 66.700 37.400
*I ropt_mt_inst_792:A I *L 0.001766 *C 70.380 34.000
*N ropt_net_214:2 *C 70.380 34.000
*N ropt_net_214:3 *C 70.380 34.340
*N ropt_net_214:4 *C 70.795 34.340
*N ropt_net_214:5 *C 70.840 34.385
*N ropt_net_214:6 *C 70.840 35.303
*N ropt_net_214:7 *C 70.833 35.360
*N ropt_net_214:8 *C 67.627 35.360
*N ropt_net_214:9 *C 67.620 35.418
*N ropt_net_214:10 *C 67.620 37.355
*N ropt_net_214:11 *C 67.575 37.400
*N ropt_net_214:12 *C 66.737 37.400

*CAP
0 ropt_mt_inst_738:X 1e-06
1 ropt_mt_inst_792:A 1e-06
2 ropt_net_214:2 6.552586e-05
3 ropt_net_214:3 8.648408e-05
4 ropt_net_214:4 5.480077e-05
5 ropt_net_214:5 8.633774e-05
6 ropt_net_214:6 8.633774e-05
7 ropt_net_214:7 0.0001502495
8 ropt_net_214:8 0.0001502495
9 ropt_net_214:9 0.0001304953
10 ropt_net_214:10 0.0001304953
11 ropt_net_214:11 9.174962e-05
12 ropt_net_214:12 9.174962e-05
13 ropt_net_214:7 chanx_left_in[15]:5 5.204424e-05
14 ropt_net_214:8 chanx_left_in[15]:6 5.204424e-05
15 ropt_net_214:7 chanx_right_in[10] 7.024982e-05
16 ropt_net_214:8 chanx_right_in[10]:17 7.024982e-05

*RES
0 ropt_mt_inst_738:X ropt_net_214:12 0.152
1 ropt_net_214:2 ropt_mt_inst_792:A 0.152
2 ropt_net_214:4 ropt_net_214:3 0.0003705357
3 ropt_net_214:5 ropt_net_214:4 0.0045
4 ropt_net_214:6 ropt_net_214:5 0.0008191963
5 ropt_net_214:7 ropt_net_214:6 0.00341
6 ropt_net_214:9 ropt_net_214:8 0.00341
7 ropt_net_214:8 ropt_net_214:7 0.0005021167
8 ropt_net_214:11 ropt_net_214:10 0.0045
9 ropt_net_214:10 ropt_net_214:9 0.00172991
10 ropt_net_214:12 ropt_net_214:11 0.0007477679
11 ropt_net_214:3 ropt_net_214:2 0.0003035715

*END

*D_NET ropt_net_211 0.001160595 //LENGTH 8.010 LUMPCC 0.0003170484 DR

*CONN
*I ropt_mt_inst_746:X O *L 0 *C 66.700 33.320
*I ropt_mt_inst_789:A I *L 0.001766 *C 70.380 36.720
*N ropt_net_211:2 *C 70.343 36.720
*N ropt_net_211:3 *C 69.505 36.720
*N ropt_net_211:4 *C 69.460 36.675
*N ropt_net_211:5 *C 69.460 33.365
*N ropt_net_211:6 *C 69.415 33.320
*N ropt_net_211:7 *C 66.737 33.320

*CAP
0 ropt_mt_inst_746:X 1e-06
1 ropt_mt_inst_789:A 1e-06
2 ropt_net_211:2 6.918717e-05
3 ropt_net_211:3 6.918717e-05
4 ropt_net_211:4 0.0002147271
5 ropt_net_211:5 0.0002147271
6 ropt_net_211:6 0.000136859
7 ropt_net_211:7 0.000136859
8 ropt_net_211:2 chanx_left_in[6]:4 4.47118e-05
9 ropt_net_211:3 chanx_left_in[6]:3 4.47118e-05
10 ropt_net_211:6 chanx_right_in[1]:5 0.0001138124
11 ropt_net_211:7 chanx_right_in[1]:4 0.0001138124

*RES
0 ropt_mt_inst_746:X ropt_net_211:7 0.152
1 ropt_net_211:2 ropt_mt_inst_789:A 0.152
2 ropt_net_211:3 ropt_net_211:2 0.0007477679
3 ropt_net_211:4 ropt_net_211:3 0.0045
4 ropt_net_211:6 ropt_net_211:5 0.0045
5 ropt_net_211:5 ropt_net_211:4 0.002955357
6 ropt_net_211:7 ropt_net_211:6 0.002390625

*END

*D_NET ropt_net_186 0.002445654 //LENGTH 16.310 LUMPCC 0.001136494 DR

*CONN
*I ropt_mt_inst_753:X O *L 0 *C 16.220 39.780
*I ropt_mt_inst_764:A I *L 0.001766 *C 3.220 42.160
*N ropt_net_186:2 *C 3.258 42.160
*N ropt_net_186:3 *C 4.095 42.160
*N ropt_net_186:4 *C 4.140 42.115
*N ropt_net_186:5 *C 4.140 39.825
*N ropt_net_186:6 *C 4.185 39.780
*N ropt_net_186:7 *C 16.183 39.780

*CAP
0 ropt_mt_inst_753:X 1e-06
1 ropt_mt_inst_764:A 1e-06
2 ropt_net_186:2 7.330799e-05
3 ropt_net_186:3 7.330799e-05
4 ropt_net_186:4 0.0001257628
5 ropt_net_186:5 0.0001257628
6 ropt_net_186:6 0.0004545092
7 ropt_net_186:7 0.0004545092
8 ropt_net_186:7 ropt_net_203:2 0.0001281672
9 ropt_net_186:6 ropt_net_203:3 0.0001281672
10 ropt_net_186:7 ropt_net_175:2 6.277491e-05
11 ropt_net_186:6 ropt_net_175:3 6.277491e-05
12 ropt_net_186:7 ropt_net_147:6 0.000349204
13 ropt_net_186:6 ropt_net_147:5 0.000349204
14 ropt_net_186:5 ropt_net_147:4 2.810073e-05
15 ropt_net_186:4 ropt_net_147:3 2.810073e-05

*RES
0 ropt_mt_inst_753:X ropt_net_186:7 0.152
1 ropt_net_186:7 ropt_net_186:6 0.01071205
2 ropt_net_186:6 ropt_net_186:5 0.0045
3 ropt_net_186:5 ropt_net_186:4 0.002044643
4 ropt_net_186:3 ropt_net_186:2 0.0007477679
5 ropt_net_186:4 ropt_net_186:3 0.0045
6 ropt_net_186:2 ropt_mt_inst_764:A 0.152

*END

*D_NET chanx_left_out[1] 0.001282028 //LENGTH 10.080 LUMPCC 0 DR

*CONN
*I ropt_mt_inst_764:X O *L 0 *C 7.095 41.480
*P chanx_left_out[1] O *L 0.7423 *C 1.230 38.080
*N chanx_left_out[1]:2 *C 2.292 38.080
*N chanx_left_out[1]:3 *C 2.300 38.138
*N chanx_left_out[1]:4 *C 2.300 41.435
*N chanx_left_out[1]:5 *C 2.345 41.480
*N chanx_left_out[1]:6 *C 7.058 41.480

*CAP
0 ropt_mt_inst_764:X 1e-06
1 chanx_left_out[1] 9.541318e-05
2 chanx_left_out[1]:2 9.541318e-05
3 chanx_left_out[1]:3 0.0002202798
4 chanx_left_out[1]:4 0.0002202798
5 chanx_left_out[1]:5 0.0003248212
6 chanx_left_out[1]:6 0.0003248212

*RES
0 ropt_mt_inst_764:X chanx_left_out[1]:6 0.152
1 chanx_left_out[1]:6 chanx_left_out[1]:5 0.00420759
2 chanx_left_out[1]:5 chanx_left_out[1]:4 0.0045
3 chanx_left_out[1]:4 chanx_left_out[1]:3 0.002944197
4 chanx_left_out[1]:3 chanx_left_out[1]:2 0.00341
5 chanx_left_out[1]:2 chanx_left_out[1] 0.0001664583

*END

*D_NET chanx_right_out[0] 0.001043226 //LENGTH 7.830 LUMPCC 0 DR

*CONN
*I ropt_mt_inst_760:X O *L 0 *C 74.255 19.720
*P chanx_right_out[0] O *L 0.7423 *C 76.050 14.960
*N chanx_right_out[0]:2 *C 74.528 14.960
*N chanx_right_out[0]:3 *C 74.520 15.018
*N chanx_right_out[0]:4 *C 74.520 17.000
*N chanx_right_out[0]:5 *C 74.060 17.000
*N chanx_right_out[0]:6 *C 74.060 19.675
*N chanx_right_out[0]:7 *C 74.060 19.720
*N chanx_right_out[0]:8 *C 74.255 19.720

*CAP
0 ropt_mt_inst_760:X 1e-06
1 chanx_right_out[0] 0.000114962
2 chanx_right_out[0]:2 0.000114962
3 chanx_right_out[0]:3 0.0001356601
4 chanx_right_out[0]:4 0.0001665201
5 chanx_right_out[0]:5 0.0002144613
6 chanx_right_out[0]:6 0.0001836013
7 chanx_right_out[0]:7 5.437297e-05
8 chanx_right_out[0]:8 5.768644e-05

*RES
0 ropt_mt_inst_760:X chanx_right_out[0]:8 0.152
1 chanx_right_out[0]:8 chanx_right_out[0]:7 0.0001059783
2 chanx_right_out[0]:7 chanx_right_out[0]:6 0.0045
3 chanx_right_out[0]:6 chanx_right_out[0]:5 0.002388393
4 chanx_right_out[0]:3 chanx_right_out[0]:2 0.00341
5 chanx_right_out[0]:2 chanx_right_out[0] 0.000238525
6 chanx_right_out[0]:5 chanx_right_out[0]:4 0.0004107143
7 chanx_right_out[0]:4 chanx_right_out[0]:3 0.001770089

*END

*D_NET chanx_right_out[1] 0.001391557 //LENGTH 11.065 LUMPCC 0.0001973541 DR

*CONN
*I ropt_mt_inst_770:X O *L 0 *C 67.160 6.800
*P chanx_right_out[1] O *L 0.7423 *C 76.050 5.440
*N chanx_right_out[1]:2 *C 69.468 5.440
*N chanx_right_out[1]:3 *C 69.460 5.498
*N chanx_right_out[1]:4 *C 69.460 6.755
*N chanx_right_out[1]:5 *C 69.415 6.800
*N chanx_right_out[1]:6 *C 67.198 6.800

*CAP
0 ropt_mt_inst_770:X 1e-06
1 chanx_right_out[1] 0.0004342698
2 chanx_right_out[1]:2 0.0004342698
3 chanx_right_out[1]:3 8.550765e-05
4 chanx_right_out[1]:4 8.550765e-05
5 chanx_right_out[1]:5 7.682417e-05
6 chanx_right_out[1]:6 7.682417e-05
7 chanx_right_out[1]:5 ropt_net_148:3 9.867706e-05
8 chanx_right_out[1]:6 ropt_net_148:4 9.867706e-05

*RES
0 ropt_mt_inst_770:X chanx_right_out[1]:6 0.152
1 chanx_right_out[1]:3 chanx_right_out[1]:2 0.00341
2 chanx_right_out[1]:2 chanx_right_out[1] 0.001031258
3 chanx_right_out[1]:5 chanx_right_out[1]:4 0.0045
4 chanx_right_out[1]:4 chanx_right_out[1]:3 0.001122768
5 chanx_right_out[1]:6 chanx_right_out[1]:5 0.001979911

*END

*D_NET ropt_net_173 0.0005680796 //LENGTH 5.080 LUMPCC 0 DR

*CONN
*I BUFT_RR_60:X O *L 0 *C 12.420 56.440
*I ropt_mt_inst_751:A I *L 0.001766 *C 12.420 61.200
*N ropt_net_173:2 *C 12.420 61.200
*N ropt_net_173:3 *C 12.420 61.155
*N ropt_net_173:4 *C 12.420 56.485
*N ropt_net_173:5 *C 12.420 56.440

*CAP
0 BUFT_RR_60:X 1e-06
1 ropt_mt_inst_751:A 1e-06
2 ropt_net_173:2 3.454581e-05
3 ropt_net_173:3 0.0002468662
4 ropt_net_173:4 0.0002468662
5 ropt_net_173:5 3.780142e-05

*RES
0 BUFT_RR_60:X ropt_net_173:5 0.152
1 ropt_net_173:5 ropt_net_173:4 0.0045
2 ropt_net_173:4 ropt_net_173:3 0.004169643
3 ropt_net_173:2 ropt_mt_inst_751:A 0.152
4 ropt_net_173:3 ropt_net_173:2 0.0045

*END

*D_NET chanx_left_out[17] 0.003208239 //LENGTH 20.590 LUMPCC 0.0009422468 DR

*CONN
*I ropt_mt_inst_781:X O *L 0 *C 11.695 39.100
*P chanx_left_out[17] O *L 0.7423 *C 1.230 34.000
*N chanx_left_out[17]:2 *C 13.793 34.000
*N chanx_left_out[17]:3 *C 13.800 34.058
*N chanx_left_out[17]:4 *C 13.800 39.055
*N chanx_left_out[17]:5 *C 13.755 39.100
*N chanx_left_out[17]:6 *C 11.732 39.100

*CAP
0 ropt_mt_inst_781:X 1e-06
1 chanx_left_out[17] 0.0005797666
2 chanx_left_out[17]:2 0.0005797666
3 chanx_left_out[17]:3 0.0003970008
4 chanx_left_out[17]:4 0.0003970008
5 chanx_left_out[17]:5 0.0001557288
6 chanx_left_out[17]:6 0.0001557288
7 chanx_left_out[17] chanx_left_in[0] 0.0001564117
8 chanx_left_out[17] chanx_left_in[0]:14 0.0003147117
9 chanx_left_out[17]:2 chanx_left_in[0]:13 0.0003147117
10 chanx_left_out[17]:2 chanx_left_in[0]:15 0.0001564117

*RES
0 ropt_mt_inst_781:X chanx_left_out[17]:6 0.152
1 chanx_left_out[17]:6 chanx_left_out[17]:5 0.001805804
2 chanx_left_out[17]:5 chanx_left_out[17]:4 0.0045
3 chanx_left_out[17]:4 chanx_left_out[17]:3 0.004462054
4 chanx_left_out[17]:3 chanx_left_out[17]:2 0.00341
5 chanx_left_out[17]:2 chanx_left_out[17] 0.001968125

*END

*D_NET chanx_right_out[18] 0.0003344463 //LENGTH 1.985 LUMPCC 0 DR

*CONN
*I ropt_mt_inst_788:X O *L 0 *C 74.255 4.080
*P chanx_right_out[18] O *L 0.7423 *C 76.050 4.080
*N chanx_right_out[18]:2 *C 74.528 4.080
*N chanx_right_out[18]:3 *C 74.520 4.080
*N chanx_right_out[18]:4 *C 74.520 4.080
*N chanx_right_out[18]:5 *C 74.255 4.080

*CAP
0 ropt_mt_inst_788:X 1e-06
1 chanx_right_out[18] 0.0001051919
2 chanx_right_out[18]:2 0.0001051919
3 chanx_right_out[18]:3 3.05428e-05
4 chanx_right_out[18]:4 4.537713e-05
5 chanx_right_out[18]:5 4.714253e-05

*RES
0 ropt_mt_inst_788:X chanx_right_out[18]:5 0.152
1 chanx_right_out[18]:5 chanx_right_out[18]:4 0.0001440218
2 chanx_right_out[18]:4 chanx_right_out[18]:3 0.0045
3 chanx_right_out[18]:3 chanx_right_out[18]:2 0.00341
4 chanx_right_out[18]:2 chanx_right_out[18] 0.000238525

*END

*D_NET chanx_right_out[12] 0.000453833 //LENGTH 3.010 LUMPCC 0 DR

*CONN
*I ropt_mt_inst_794:X O *L 0 *C 74.255 53.720
*P chanx_right_out[12] O *L 0.7423 *C 76.050 54.400
*N chanx_right_out[12]:2 *C 74.528 54.400
*N chanx_right_out[12]:3 *C 74.520 54.343
*N chanx_right_out[12]:4 *C 74.520 53.765
*N chanx_right_out[12]:5 *C 74.520 53.720
*N chanx_right_out[12]:6 *C 74.255 53.720

*CAP
0 ropt_mt_inst_794:X 1e-06
1 chanx_right_out[12] 0.0001197954
2 chanx_right_out[12]:2 0.0001197954
3 chanx_right_out[12]:3 5.722192e-05
4 chanx_right_out[12]:4 5.722192e-05
5 chanx_right_out[12]:5 4.861967e-05
6 chanx_right_out[12]:6 5.017863e-05

*RES
0 ropt_mt_inst_794:X chanx_right_out[12]:6 0.152
1 chanx_right_out[12]:6 chanx_right_out[12]:5 0.0001440218
2 chanx_right_out[12]:5 chanx_right_out[12]:4 0.0045
3 chanx_right_out[12]:4 chanx_right_out[12]:3 0.000515625
4 chanx_right_out[12]:3 chanx_right_out[12]:2 0.00341
5 chanx_right_out[12]:2 chanx_right_out[12] 0.000238525

*END

*D_NET ropt_net_144 0.00245051 //LENGTH 20.610 LUMPCC 0 DR

*CONN
*I BUFT_P_110:X O *L 0 *C 18.860 56.440
*I ropt_mt_inst_722:A I *L 0.001766 *C 3.220 55.760
*N ropt_net_144:2 *C 3.258 55.760
*N ropt_net_144:3 *C 3.635 55.760
*N ropt_net_144:4 *C 3.680 55.805
*N ropt_net_144:5 *C 3.680 57.755
*N ropt_net_144:6 *C 3.725 57.800
*N ropt_net_144:7 *C 16.515 57.800
*N ropt_net_144:8 *C 16.560 57.755
*N ropt_net_144:9 *C 16.560 56.485
*N ropt_net_144:10 *C 16.605 56.440
*N ropt_net_144:11 *C 18.823 56.440

*CAP
0 BUFT_P_110:X 1e-06
1 ropt_mt_inst_722:A 1e-06
2 ropt_net_144:2 3.979128e-05
3 ropt_net_144:3 3.979128e-05
4 ropt_net_144:4 0.0001250813
5 ropt_net_144:5 0.0001250813
6 ropt_net_144:6 0.0008232823
7 ropt_net_144:7 0.0008232823
8 ropt_net_144:8 8.144593e-05
9 ropt_net_144:9 8.144593e-05
10 ropt_net_144:10 0.000154654
11 ropt_net_144:11 0.000154654

*RES
0 BUFT_P_110:X ropt_net_144:11 0.152
1 ropt_net_144:2 ropt_mt_inst_722:A 0.152
2 ropt_net_144:3 ropt_net_144:2 0.0003370536
3 ropt_net_144:4 ropt_net_144:3 0.0045
4 ropt_net_144:6 ropt_net_144:5 0.0045
5 ropt_net_144:5 ropt_net_144:4 0.001741072
6 ropt_net_144:7 ropt_net_144:6 0.01141964
7 ropt_net_144:8 ropt_net_144:7 0.0045
8 ropt_net_144:10 ropt_net_144:9 0.0045