*SPEF "1481-1998"
*DESIGN "cbx_1__1_"
*DATE "Tue Oct 27 11:35:07 2020"
*
*
*
*
*DIVIDER /
*DELIMITER :
*T_UNIT 1 NS
*C_UNIT 1 PF
*R_UNIT 1 KOHM
*L_UNIT 1 HENRY

// XY_UNIT 1 UM
// PARASITIC_TECH nominal at 25.000 degree

*PORTS
prog_clk[0] I *C 2.300 0.680
chanx_left_in[0] I *C 0.690 34.000
chanx_left_in[1] I *C 0.690 51.000
chanx_left_in[2] I *C 0.690 11.560
chanx_left_in[3] I *C 0.690 52.360
chanx_left_in[4] I *C 0.690 26.520
chanx_left_in[5] I *C 0.690 44.880
chanx_left_in[6] I *C 0.690 12.920
chanx_left_in[7] I *C 0.690 39.440
chanx_left_in[8] I *C 0.690 23.800
chanx_left_in[9] I *C 0.690 43.520
chanx_left_in[10] I *C 0.690 28.560
chanx_left_in[11] I *C 0.690 40.800
chanx_left_in[12] I *C 0.690 14.280
chanx_left_in[13] I *C 0.690 36.720
chanx_left_in[14] I *C 0.690 6.800
chanx_left_in[15] I *C 0.690 46.240
chanx_left_in[16] I *C 0.690 5.440
chanx_left_in[17] I *C 0.690 48.960
chanx_left_in[18] I *C 0.690 25.160
chanx_left_in[19] I *C 0.690 47.600
chanx_right_in[0] I *C 76.590 37.400
chanx_right_in[1] I *C 76.590 50.320
chanx_right_in[2] I *C 76.590 51.680
chanx_right_in[3] I *C 76.590 48.960
chanx_right_in[4] I *C 76.590 20.400
chanx_right_in[5] I *C 76.590 39.440
chanx_right_in[6] I *C 76.590 11.560
chanx_right_in[7] I *C 76.590 40.800
chanx_right_in[8] I *C 76.590 15.640
chanx_right_in[9] I *C 76.590 43.520
chanx_right_in[10] I *C 76.590 25.840
chanx_right_in[11] I *C 76.590 46.240
chanx_right_in[12] I *C 76.590 12.920
chanx_right_in[13] I *C 76.590 54.400
chanx_right_in[14] I *C 76.590 7.480
chanx_right_in[15] I *C 76.590 47.600
chanx_right_in[16] I *C 76.590 19.040
chanx_right_in[17] I *C 76.590 57.800
chanx_right_in[18] I *C 76.590 24.480
chanx_right_in[19] I *C 76.590 44.880
ccff_head[0] I *C 76.590 36.040
chanx_left_out[0] O *C 0.690 19.720
chanx_left_out[1] O *C 0.690 61.880
chanx_left_out[2] O *C 0.690 10.200
chanx_left_out[3] O *C 0.690 59.160
chanx_left_out[4] O *C 0.690 60.520
chanx_left_out[5] O *C 0.690 56.440
chanx_left_out[6] O *C 0.690 21.080
chanx_left_out[7] O *C 0.690 35.360
chanx_left_out[8] O *C 0.690 22.440
chanx_left_out[9] O *C 0.690 30.600
chanx_left_out[10] O *C 0.690 18.360
chanx_left_out[11] O *C 0.690 57.800
chanx_left_out[12] O *C 0.690 15.640
chanx_left_out[13] O *C 0.690 55.080
chanx_left_out[14] O *C 0.690 38.080
chanx_left_out[15] O *C 0.690 32.640
chanx_left_out[16] O *C 0.690 8.840
chanx_left_out[17] O *C 0.690 4.080
chanx_left_out[18] O *C 0.690 17.000
chanx_left_out[19] O *C 0.690 53.720
chanx_right_out[0] O *C 76.590 53.040
chanx_right_out[1] O *C 76.590 61.880
chanx_right_out[2] O *C 76.590 27.200
chanx_right_out[3] O *C 76.590 59.160
chanx_right_out[4] O *C 76.590 55.760
chanx_right_out[5] O *C 74.980 0.680
chanx_right_out[6] O *C 76.590 8.840
chanx_right_out[7] O *C 76.590 14.280
chanx_right_out[8] O *C 76.590 22.440
chanx_right_out[9] O *C 76.590 60.520
chanx_right_out[10] O *C 76.590 17.680
chanx_right_out[11] O *C 76.590 4.080
chanx_right_out[12] O *C 76.590 30.600
chanx_right_out[13] O *C 76.590 42.160
chanx_right_out[14] O *C 76.590 28.560
chanx_right_out[15] O *C 76.590 33.320
chanx_right_out[16] O *C 76.590 5.440
chanx_right_out[17] O *C 76.590 10.200
chanx_right_out[18] O *C 76.590 31.960
chanx_right_out[19] O *C 76.590 34.680
top_grid_pin_16_[0] O *C 24.840 64.600
top_grid_pin_17_[0] O *C 23.000 64.600
top_grid_pin_18_[0] O *C 43.700 64.600
top_grid_pin_19_[0] O *C 23.920 64.600
top_grid_pin_20_[0] O *C 10.120 64.600
top_grid_pin_21_[0] O *C 4.140 64.600
top_grid_pin_22_[0] O *C 11.040 64.600
top_grid_pin_23_[0] O *C 11.960 64.600
top_grid_pin_24_[0] O *C 6.900 64.600
top_grid_pin_25_[0] O *C 5.060 64.600
top_grid_pin_26_[0] O *C 7.820 64.600
top_grid_pin_27_[0] O *C 5.980 64.600
top_grid_pin_28_[0] O *C 57.960 64.600
top_grid_pin_29_[0] O *C 44.620 64.600
top_grid_pin_30_[0] O *C 45.540 64.600
top_grid_pin_31_[0] O *C 58.880 64.600
ccff_tail[0] O *C 0.690 42.160
VDD I *C 38.640 32.640
VSS I *C 38.640 32.640

*D_NET chanx_left_in[0] 0.023939 //LENGTH 155.435 LUMPCC 0.007881348 DR

*CONN
*P chanx_left_in[0] I *L 0.29796 *C 1.230 34.000
*I mux_bottom_ipin_10\/mux_l1_in_0_:A1 I *L 0.00198 *C 12.420 12.580
*I mux_bottom_ipin_2\/mux_l1_in_0_:A1 I *L 0.00198 *C 32.105 12.580
*I mux_bottom_ipin_8\/mux_l1_in_0_:A1 I *L 0.00198 *C 44.620 20.060
*I mux_bottom_ipin_14\/mux_l1_in_0_:A1 I *L 0.00198 *C 63.940 25.500
*I BUFT_P_82:A I *L 0.001767 *C 70.380 53.040
*I mux_bottom_ipin_0\/mux_l1_in_0_:A1 I *L 0.00198 *C 67.620 28.900
*I mux_bottom_ipin_6\/mux_l1_in_0_:A1 I *L 0.00198 *C 43.800 23.460
*I mux_bottom_ipin_12\/mux_l1_in_0_:A1 I *L 0.00198 *C 44.720 14.620
*I mux_bottom_ipin_4\/mux_l1_in_0_:A1 I *L 0.00198 *C 27.140 12.580
*N chanx_left_in[0]:10 *C 27.140 12.580
*N chanx_left_in[0]:11 *C 44.683 14.620
*N chanx_left_in[0]:12 *C 43.700 23.460
*N chanx_left_in[0]:13 *C 43.700 23.415
*N chanx_left_in[0]:14 *C 67.583 28.900
*N chanx_left_in[0]:15 *C 66.700 28.900
*N chanx_left_in[0]:16 *C 66.700 29.240
*N chanx_left_in[0]:17 *C 70.380 53.040
*N chanx_left_in[0]:18 *C 70.380 52.995
*N chanx_left_in[0]:19 *C 70.380 49.018
*N chanx_left_in[0]:20 *C 70.383 48.960
*N chanx_left_in[0]:21 *C 70.825 48.960
*N chanx_left_in[0]:22 *C 70.840 48.953
*N chanx_left_in[0]:23 *C 70.840 29.248
*N chanx_left_in[0]:24 *C 70.820 29.240
*N chanx_left_in[0]:25 *C 66.708 29.240
*N chanx_left_in[0]:26 *C 66.700 29.240
*N chanx_left_in[0]:27 *C 66.700 22.498
*N chanx_left_in[0]:28 *C 66.693 22.440
*N chanx_left_in[0]:29 *C 63.940 25.500
*N chanx_left_in[0]:30 *C 65.275 25.500
*N chanx_left_in[0]:31 *C 65.320 25.455
*N chanx_left_in[0]:32 *C 65.320 22.498
*N chanx_left_in[0]:33 *C 65.320 22.440
*N chanx_left_in[0]:34 *C 43.708 22.440
*N chanx_left_in[0]:35 *C 43.700 22.440
*N chanx_left_in[0]:36 *C 44.583 20.060
*N chanx_left_in[0]:37 *C 43.700 20.060
*N chanx_left_in[0]:38 *C 43.700 20.400
*N chanx_left_in[0]:39 *C 43.700 20.400
*N chanx_left_in[0]:40 *C 43.700 14.665
*N chanx_left_in[0]:41 *C 43.700 14.620
*N chanx_left_in[0]:42 *C 40.065 14.620
*N chanx_left_in[0]:43 *C 40.020 14.575
*N chanx_left_in[0]:44 *C 40.020 11.605
*N chanx_left_in[0]:45 *C 39.975 11.560
*N chanx_left_in[0]:46 *C 33.165 11.560
*N chanx_left_in[0]:47 *C 33.120 11.605
*N chanx_left_in[0]:48 *C 33.120 12.535
*N chanx_left_in[0]:49 *C 33.075 12.580
*N chanx_left_in[0]:50 *C 32.105 12.580
*N chanx_left_in[0]:51 *C 31.740 12.580
*N chanx_left_in[0]:52 *C 31.740 12.920
*N chanx_left_in[0]:53 *C 27.140 12.920
*N chanx_left_in[0]:54 *C 20.285 12.920
*N chanx_left_in[0]:55 *C 20.240 12.965
*N chanx_left_in[0]:56 *C 20.240 14.902
*N chanx_left_in[0]:57 *C 20.233 14.960
*N chanx_left_in[0]:58 *C 12.420 12.580
*N chanx_left_in[0]:59 *C 12.420 12.920
*N chanx_left_in[0]:60 *C 14.215 12.920
*N chanx_left_in[0]:61 *C 14.260 12.965
*N chanx_left_in[0]:62 *C 14.260 14.902
*N chanx_left_in[0]:63 *C 14.260 14.960
*N chanx_left_in[0]:64 *C 3.700 14.960
*N chanx_left_in[0]:65 *C 3.680 14.968
*N chanx_left_in[0]:66 *C 3.680 33.992
*N chanx_left_in[0]:67 *C 3.660 34.000

*CAP
0 chanx_left_in[0] 0.0001761204
1 mux_bottom_ipin_10\/mux_l1_in_0_:A1 1e-06
2 mux_bottom_ipin_2\/mux_l1_in_0_:A1 1e-06
3 mux_bottom_ipin_8\/mux_l1_in_0_:A1 1e-06
4 mux_bottom_ipin_14\/mux_l1_in_0_:A1 1e-06
5 BUFT_P_82:A 1e-06
6 mux_bottom_ipin_0\/mux_l1_in_0_:A1 1e-06
7 mux_bottom_ipin_6\/mux_l1_in_0_:A1 1e-06
8 mux_bottom_ipin_12\/mux_l1_in_0_:A1 1e-06
9 mux_bottom_ipin_4\/mux_l1_in_0_:A1 1e-06
10 chanx_left_in[0]:10 5.748226e-05
11 chanx_left_in[0]:11 6.72502e-05
12 chanx_left_in[0]:12 3.262277e-05
13 chanx_left_in[0]:13 6.169656e-05
14 chanx_left_in[0]:14 7.462366e-05
15 chanx_left_in[0]:15 0.0001026921
16 chanx_left_in[0]:16 6.051418e-05
17 chanx_left_in[0]:17 3.743093e-05
18 chanx_left_in[0]:18 0.0002307029
19 chanx_left_in[0]:19 0.0002307029
20 chanx_left_in[0]:20 7.597208e-05
21 chanx_left_in[0]:21 7.597208e-05
22 chanx_left_in[0]:22 0.0007961668
23 chanx_left_in[0]:23 0.0007961668
24 chanx_left_in[0]:24 0.0002474791
25 chanx_left_in[0]:25 0.0002474791
26 chanx_left_in[0]:26 0.0002885019
27 chanx_left_in[0]:27 0.0002479655
28 chanx_left_in[0]:28 6.399733e-05
29 chanx_left_in[0]:29 0.0001728737
30 chanx_left_in[0]:30 0.0001281042
31 chanx_left_in[0]:31 0.0001900607
32 chanx_left_in[0]:32 0.0001900607
33 chanx_left_in[0]:33 0.0007576158
34 chanx_left_in[0]:34 0.0006936185
35 chanx_left_in[0]:35 0.0002153408
36 chanx_left_in[0]:36 8.448403e-05
37 chanx_left_in[0]:37 0.00011492
38 chanx_left_in[0]:38 6.636944e-05
39 chanx_left_in[0]:39 0.00045425
40 chanx_left_in[0]:40 0.0002991101
41 chanx_left_in[0]:41 0.000330333
42 chanx_left_in[0]:42 0.0002284664
43 chanx_left_in[0]:43 0.0001976387
44 chanx_left_in[0]:44 0.0001976387
45 chanx_left_in[0]:45 0.0004791293
46 chanx_left_in[0]:46 0.0004791293
47 chanx_left_in[0]:47 8.596776e-05
48 chanx_left_in[0]:48 8.596776e-05
49 chanx_left_in[0]:49 7.975813e-05
50 chanx_left_in[0]:50 0.0001354427
51 chanx_left_in[0]:51 5.044732e-05
52 chanx_left_in[0]:52 0.0004010733
53 chanx_left_in[0]:53 0.0008623318
54 chanx_left_in[0]:54 0.0004589829
55 chanx_left_in[0]:55 0.0001461821
56 chanx_left_in[0]:56 0.0001461821
57 chanx_left_in[0]:57 0.000247082
58 chanx_left_in[0]:58 6.181865e-05
59 chanx_left_in[0]:59 0.0001955871
60 chanx_left_in[0]:60 0.0001654462
61 chanx_left_in[0]:61 0.000142802
62 chanx_left_in[0]:62 0.000142802
63 chanx_left_in[0]:63 0.0005827593
64 chanx_left_in[0]:64 0.0003356774
65 chanx_left_in[0]:65 0.001147772
66 chanx_left_in[0]:66 0.001147772
67 chanx_left_in[0]:67 0.0001761204
68 chanx_left_in[0]:31 chanx_left_in[4]:11 1.057854e-07
69 chanx_left_in[0]:32 chanx_left_in[4]:14 1.057854e-07
70 chanx_left_in[0]:33 chanx_left_in[4]:15 0.0004643865
71 chanx_left_in[0]:33 chanx_left_in[4]:16 3.153121e-05
72 chanx_left_in[0]:34 chanx_left_in[4]:16 0.0004643865
73 chanx_left_in[0]:27 chanx_left_in[4]:14 0.0001767487
74 chanx_left_in[0]:28 chanx_left_in[4]:15 3.153121e-05
75 chanx_left_in[0]:26 chanx_left_in[4]:11 0.0001767487
76 chanx_left_in[0]:14 chanx_left_in[4]:9 2.182518e-05
77 chanx_left_in[0]:15 chanx_left_in[4]:10 2.182518e-05
78 chanx_left_in[0]:35 chanx_left_in[12]:22 1.482226e-06
79 chanx_left_in[0]:43 chanx_left_in[12]:22 1.55722e-06
80 chanx_left_in[0]:44 chanx_left_in[12]:25 1.55722e-06
81 chanx_left_in[0]:40 chanx_left_in[12]:25 5.201092e-05
82 chanx_left_in[0]:39 chanx_left_in[12]:22 5.201092e-05
83 chanx_left_in[0]:39 chanx_left_in[12]:25 1.482226e-06
84 chanx_left_in[0]:63 chanx_left_in[12]:34 0.000298235
85 chanx_left_in[0]:64 chanx_left_in[12] 0.000298235
86 chanx_left_in[0]:23 chanx_left_in[17]:10 0.0008770785
87 chanx_left_in[0]:22 chanx_left_in[17]:11 0.0008770785
88 chanx_left_in[0]:33 chanx_right_in[18]:22 0.0001583027
89 chanx_left_in[0]:33 chanx_right_in[18]:23 0.0001881614
90 chanx_left_in[0]:34 chanx_right_in[18]:22 0.0001881614
91 chanx_left_in[0]:34 chanx_right_in[18]:16 0.0001302876
92 chanx_left_in[0]:28 chanx_right_in[18]:23 2.801507e-05
93 chanx_left_in[0]:57 chanx_right_in[18]:10 0.0003430669
94 chanx_left_in[0]:63 chanx_right_in[18]:9 0.0003430669
95 chanx_left_in[0]:63 chanx_right_in[18]:10 0.0001360875
96 chanx_left_in[0]:64 chanx_right_in[18]:9 0.0001360875
97 chanx_left_in[0]:29 mux_bottom_ipin_0/sky130_fd_sc_hd__mux2_1_1_X[0]:2 1.813726e-08
98 chanx_left_in[0]:30 mux_bottom_ipin_0/sky130_fd_sc_hd__mux2_1_1_X[0]:3 1.813726e-08
99 chanx_left_in[0]:31 mux_bottom_ipin_0/sky130_fd_sc_hd__mux2_1_1_X[0]:5 2.824704e-05
100 chanx_left_in[0]:32 mux_bottom_ipin_0/sky130_fd_sc_hd__mux2_1_1_X[0]:4 2.824704e-05
101 chanx_left_in[0]:27 mux_bottom_ipin_0/sky130_fd_sc_hd__mux2_1_1_X[0]:4 6.326041e-05
102 chanx_left_in[0]:26 mux_bottom_ipin_0/sky130_fd_sc_hd__mux2_1_1_X[0]:5 6.326041e-05
103 chanx_left_in[0]:54 mux_bottom_ipin_4/sky130_fd_sc_hd__mux2_1_0_X[0]:6 8.661646e-05
104 chanx_left_in[0]:53 mux_bottom_ipin_4/sky130_fd_sc_hd__mux2_1_0_X[0]:7 8.661646e-05
105 chanx_left_in[0]:33 optlc_net_95:14 0.0003440099
106 chanx_left_in[0]:34 optlc_net_95:15 0.0003440099
107 chanx_left_in[0]:25 ropt_net_106:7 0.0001850659
108 chanx_left_in[0]:24 ropt_net_106:6 0.0001850659
109 chanx_left_in[0]:63 chanx_left_out[12]:4 3.877058e-06
110 chanx_left_in[0]:63 chanx_left_out[12]:2 0.0004206893
111 chanx_left_in[0]:64 chanx_left_out[12] 0.0004206893
112 chanx_left_in[0]:64 chanx_left_out[12]:3 3.877058e-06
113 chanx_left_in[0]:19 BUF_net_61:6 5.830973e-05
114 chanx_left_in[0]:18 BUF_net_61:5 5.830973e-05

*RES
0 chanx_left_in[0] chanx_left_in[0]:67 0.0003807
1 chanx_left_in[0]:29 mux_bottom_ipin_14\/mux_l1_in_0_:A1 0.152
2 chanx_left_in[0]:30 chanx_left_in[0]:29 0.001191964
3 chanx_left_in[0]:31 chanx_left_in[0]:30 0.0045
4 chanx_left_in[0]:32 chanx_left_in[0]:31 0.002640625
5 chanx_left_in[0]:33 chanx_left_in[0]:32 0.00341
6 chanx_left_in[0]:33 chanx_left_in[0]:28 0.000215025
7 chanx_left_in[0]:35 chanx_left_in[0]:34 0.00341
8 chanx_left_in[0]:35 chanx_left_in[0]:13 0.0008705358
9 chanx_left_in[0]:34 chanx_left_in[0]:33 0.003385958
10 chanx_left_in[0]:42 chanx_left_in[0]:41 0.003245536
11 chanx_left_in[0]:43 chanx_left_in[0]:42 0.0045
12 chanx_left_in[0]:45 chanx_left_in[0]:44 0.0045
13 chanx_left_in[0]:44 chanx_left_in[0]:43 0.002651786
14 chanx_left_in[0]:46 chanx_left_in[0]:45 0.006080357
15 chanx_left_in[0]:47 chanx_left_in[0]:46 0.0045
16 chanx_left_in[0]:49 chanx_left_in[0]:48 0.0045
17 chanx_left_in[0]:48 chanx_left_in[0]:47 0.0008303572
18 chanx_left_in[0]:27 chanx_left_in[0]:26 0.00602009
19 chanx_left_in[0]:28 chanx_left_in[0]:27 0.00341
20 chanx_left_in[0]:41 chanx_left_in[0]:40 0.0045
21 chanx_left_in[0]:41 chanx_left_in[0]:11 0.0008772322
22 chanx_left_in[0]:40 chanx_left_in[0]:39 0.005120536
23 chanx_left_in[0]:56 chanx_left_in[0]:55 0.001729911
24 chanx_left_in[0]:57 chanx_left_in[0]:56 0.00341
25 chanx_left_in[0]:54 chanx_left_in[0]:53 0.006120536
26 chanx_left_in[0]:55 chanx_left_in[0]:54 0.0045
27 chanx_left_in[0]:12 mux_bottom_ipin_6\/mux_l1_in_0_:A1 0.152
28 chanx_left_in[0]:13 chanx_left_in[0]:12 0.0045
29 chanx_left_in[0]:11 mux_bottom_ipin_12\/mux_l1_in_0_:A1 0.152
30 chanx_left_in[0]:26 chanx_left_in[0]:25 0.00341
31 chanx_left_in[0]:26 chanx_left_in[0]:16 0.0045
32 chanx_left_in[0]:25 chanx_left_in[0]:24 0.0006442916
33 chanx_left_in[0]:24 chanx_left_in[0]:23 0.00341
34 chanx_left_in[0]:23 chanx_left_in[0]:22 0.003087116
35 chanx_left_in[0]:21 chanx_left_in[0]:20 6.499219e-05
36 chanx_left_in[0]:22 chanx_left_in[0]:21 0.00341
37 chanx_left_in[0]:19 chanx_left_in[0]:18 0.003551339
38 chanx_left_in[0]:20 chanx_left_in[0]:19 0.00341
39 chanx_left_in[0]:17 BUFT_P_82:A 0.152
40 chanx_left_in[0]:18 chanx_left_in[0]:17 0.0045
41 chanx_left_in[0]:10 mux_bottom_ipin_4\/mux_l1_in_0_:A1 0.152
42 chanx_left_in[0]:50 mux_bottom_ipin_2\/mux_l1_in_0_:A1 0.152
43 chanx_left_in[0]:50 chanx_left_in[0]:49 0.0008660716
44 chanx_left_in[0]:38 chanx_left_in[0]:37 0.0003035715
45 chanx_left_in[0]:39 chanx_left_in[0]:38 0.0045
46 chanx_left_in[0]:39 chanx_left_in[0]:35 0.001821429
47 chanx_left_in[0]:36 mux_bottom_ipin_8\/mux_l1_in_0_:A1 0.152
48 chanx_left_in[0]:62 chanx_left_in[0]:61 0.001729911
49 chanx_left_in[0]:63 chanx_left_in[0]:62 0.00341
50 chanx_left_in[0]:63 chanx_left_in[0]:57 0.0009356916
51 chanx_left_in[0]:60 chanx_left_in[0]:59 0.001602679
52 chanx_left_in[0]:61 chanx_left_in[0]:60 0.0045
53 chanx_left_in[0]:58 mux_bottom_ipin_10\/mux_l1_in_0_:A1 0.152
54 chanx_left_in[0]:16 chanx_left_in[0]:15 0.0003035715
55 chanx_left_in[0]:14 mux_bottom_ipin_0\/mux_l1_in_0_:A1 0.152
56 chanx_left_in[0]:64 chanx_left_in[0]:63 0.0016544
57 chanx_left_in[0]:65 chanx_left_in[0]:64 0.00341
58 chanx_left_in[0]:67 chanx_left_in[0]:66 0.00341
59 chanx_left_in[0]:66 chanx_left_in[0]:65 0.002980583
60 chanx_left_in[0]:59 chanx_left_in[0]:58 0.0003035715
61 chanx_left_in[0]:53 chanx_left_in[0]:52 0.004107143
62 chanx_left_in[0]:53 chanx_left_in[0]:10 0.0003035715
63 chanx_left_in[0]:52 chanx_left_in[0]:51 0.0003035715
64 chanx_left_in[0]:51 chanx_left_in[0]:50 0.0003258929
65 chanx_left_in[0]:37 chanx_left_in[0]:36 0.0007879465
66 chanx_left_in[0]:15 chanx_left_in[0]:14 0.0007879465

*END

*D_NET chanx_left_in[16] 0.01150214 //LENGTH 76.960 LUMPCC 0.00503289 DR

*CONN
*P chanx_left_in[16] I *L 0.29796 *C 1.230 5.440
*I FTB_17__16:A I *L 0.001767 *C 65.780 9.520
*I mux_bottom_ipin_0\/mux_l2_in_2_:A0 I *L 0.001631 *C 63.770 11.560
*I mux_bottom_ipin_12\/mux_l2_in_2_:A0 I *L 0.001631 *C 51.235 10.200
*N chanx_left_in[16]:4 *C 51.235 10.200
*N chanx_left_in[16]:5 *C 63.733 11.560
*N chanx_left_in[16]:6 *C 65.743 9.520
*N chanx_left_in[16]:7 *C 63.065 9.520
*N chanx_left_in[16]:8 *C 63.020 9.565
*N chanx_left_in[16]:9 *C 63.020 11.515
*N chanx_left_in[16]:10 *C 63.020 11.560
*N chanx_left_in[16]:11 *C 52.945 11.560
*N chanx_left_in[16]:12 *C 52.900 11.515
*N chanx_left_in[16]:13 *C 52.900 9.565
*N chanx_left_in[16]:14 *C 52.855 9.520
*N chanx_left_in[16]:15 *C 51.060 9.520
*N chanx_left_in[16]:16 *C 49.265 9.520
*N chanx_left_in[16]:17 *C 49.220 9.475
*N chanx_left_in[16]:18 *C 49.220 6.178
*N chanx_left_in[16]:19 *C 49.213 6.120
*N chanx_left_in[16]:20 *C 8.280 6.120
*N chanx_left_in[16]:21 *C 8.280 5.440

*CAP
0 chanx_left_in[16] 0.0002120425
1 FTB_17__16:A 1e-06
2 mux_bottom_ipin_0\/mux_l2_in_2_:A0 1e-06
3 mux_bottom_ipin_12\/mux_l2_in_2_:A0 1e-06
4 chanx_left_in[16]:4 7.259512e-05
5 chanx_left_in[16]:5 2.871472e-05
6 chanx_left_in[16]:6 0.0001939143
7 chanx_left_in[16]:7 0.0001939143
8 chanx_left_in[16]:8 0.0001192029
9 chanx_left_in[16]:9 0.0001192029
10 chanx_left_in[16]:10 0.0006422217
11 chanx_left_in[16]:11 0.0005793149
12 chanx_left_in[16]:12 0.0001504178
13 chanx_left_in[16]:13 0.0001504178
14 chanx_left_in[16]:14 0.0001437273
15 chanx_left_in[16]:15 0.0003296434
16 chanx_left_in[16]:16 0.0001422556
17 chanx_left_in[16]:17 0.000225282
18 chanx_left_in[16]:18 0.000225282
19 chanx_left_in[16]:19 0.001316174
20 chanx_left_in[16]:20 0.00136303
21 chanx_left_in[16]:21 0.0002588985
22 chanx_left_in[16] chanx_left_in[14] 0.0001609022
23 chanx_left_in[16]:19 chanx_left_in[14]:29 0.0007122599
24 chanx_left_in[16]:21 chanx_left_in[14]:29 0.0001609022
25 chanx_left_in[16]:20 chanx_left_in[14] 0.0007122599
26 chanx_left_in[16]:19 chanx_right_in[14] 0.0003004287
27 chanx_left_in[16]:19 chanx_right_in[14]:32 0.0002967329
28 chanx_left_in[16]:20 chanx_right_in[14]:27 0.0002967329
29 chanx_left_in[16]:20 chanx_right_in[14]:32 0.0003004287
30 chanx_left_in[16] prog_clk[0]:365 0.0001423596
31 chanx_left_in[16]:11 prog_clk[0]:297 5.691322e-05
32 chanx_left_in[16]:12 prog_clk[0]:311 1.948419e-08
33 chanx_left_in[16]:13 prog_clk[0]:312 1.948419e-08
34 chanx_left_in[16]:17 prog_clk[0]:316 2.603647e-05
35 chanx_left_in[16]:18 prog_clk[0]:319 2.603647e-05
36 chanx_left_in[16]:19 prog_clk[0]:364 3.642027e-05
37 chanx_left_in[16]:19 prog_clk[0]:320 9.167953e-05
38 chanx_left_in[16]:19 prog_clk[0]:342 0.000164218
39 chanx_left_in[16]:19 prog_clk[0]:357 0.0001205623
40 chanx_left_in[16]:19 prog_clk[0]:325 7.803267e-05
41 chanx_left_in[16]:19 prog_clk[0]:346 8.59275e-05
42 chanx_left_in[16]:19 prog_clk[0]:330 4.411041e-05
43 chanx_left_in[16]:10 prog_clk[0]:297 3.348829e-05
44 chanx_left_in[16]:10 prog_clk[0]:296 5.691322e-05
45 chanx_left_in[16]:10 prog_clk[0]:295 5.377498e-07
46 chanx_left_in[16]:9 prog_clk[0]:298 8.508379e-06
47 chanx_left_in[16]:8 prog_clk[0]:299 8.508379e-06
48 chanx_left_in[16]:5 prog_clk[0]:294 5.377498e-07
49 chanx_left_in[16]:5 prog_clk[0]:296 3.348829e-05
50 chanx_left_in[16]:21 prog_clk[0]:363 5.57821e-06
51 chanx_left_in[16]:21 prog_clk[0]:364 0.0001423596
52 chanx_left_in[16]:20 prog_clk[0]:365 3.642027e-05
53 chanx_left_in[16]:20 prog_clk[0]:364 0.0001205623
54 chanx_left_in[16]:20 prog_clk[0]:342 4.411041e-05
55 chanx_left_in[16]:20 prog_clk[0]:357 8.59275e-05
56 chanx_left_in[16]:20 prog_clk[0]:325 9.167953e-05
57 chanx_left_in[16]:20 prog_clk[0]:346 0.000164218
58 chanx_left_in[16]:20 prog_clk[0]:360 5.57821e-06
59 chanx_left_in[16]:20 prog_clk[0]:330 7.803267e-05
60 chanx_left_in[16]:11 mux_bottom_ipin_12/sky130_fd_sc_hd__mux2_1_6_X[0]:2 5.591819e-05
61 chanx_left_in[16]:10 mux_bottom_ipin_12/sky130_fd_sc_hd__mux2_1_6_X[0]:3 5.591819e-05
62 chanx_left_in[16]:11 mux_bottom_ipin_12/sky130_fd_sc_hd__mux2_1_8_X[0]:3 9.581127e-05
63 chanx_left_in[16]:10 mux_bottom_ipin_12/sky130_fd_sc_hd__mux2_1_8_X[0]:2 9.581127e-05

*RES
0 chanx_left_in[16] chanx_left_in[16]:21 0.0011045
1 chanx_left_in[16]:11 chanx_left_in[16]:10 0.008995536
2 chanx_left_in[16]:12 chanx_left_in[16]:11 0.0045
3 chanx_left_in[16]:14 chanx_left_in[16]:13 0.0045
4 chanx_left_in[16]:13 chanx_left_in[16]:12 0.001741072
5 chanx_left_in[16]:16 chanx_left_in[16]:15 0.001602679
6 chanx_left_in[16]:17 chanx_left_in[16]:16 0.0045
7 chanx_left_in[16]:18 chanx_left_in[16]:17 0.002944197
8 chanx_left_in[16]:19 chanx_left_in[16]:18 0.00341
9 chanx_left_in[16]:10 chanx_left_in[16]:9 0.0045
10 chanx_left_in[16]:10 chanx_left_in[16]:5 0.0006361608
11 chanx_left_in[16]:9 chanx_left_in[16]:8 0.001741072
12 chanx_left_in[16]:7 chanx_left_in[16]:6 0.002390625
13 chanx_left_in[16]:8 chanx_left_in[16]:7 0.0045
14 chanx_left_in[16]:6 FTB_17__16:A 0.152
15 chanx_left_in[16]:5 mux_bottom_ipin_0\/mux_l2_in_2_:A0 0.152
16 chanx_left_in[16]:4 mux_bottom_ipin_12\/mux_l2_in_2_:A0 0.152
17 chanx_left_in[16]:15 chanx_left_in[16]:14 0.001602679
18 chanx_left_in[16]:15 chanx_left_in[16]:4 0.0006071428
19 chanx_left_in[16]:21 chanx_left_in[16]:20 0.0001065333
20 chanx_left_in[16]:20 chanx_left_in[16]:19 0.006412758

*END

*D_NET chanx_left_in[17] 0.01928842 //LENGTH 118.540 LUMPCC 0.005495332 DR

*CONN
*P chanx_left_in[17] I *L 0.29796 *C 1.230 48.960
*I mux_bottom_ipin_1\/mux_l2_in_2_:A0 I *L 0.001631 *C 36.645 53.380
*I mux_bottom_ipin_13\/mux_l2_in_2_:A0 I *L 0.001631 *C 63.745 53.380
*I BUFT_P_84:A I *L 0.001767 *C 69.000 14.960
*N chanx_left_in[17]:4 *C 68.290 14.960
*N chanx_left_in[17]:5 *C 69.000 14.960
*N chanx_left_in[17]:6 *C 69.000 14.960
*N chanx_left_in[17]:7 *C 68.998 14.960
*N chanx_left_in[17]:8 *C 69.000 14.968
*N chanx_left_in[17]:9 *C 69.000 19.040
*N chanx_left_in[17]:10 *C 69.920 19.040
*N chanx_left_in[17]:11 *C 69.920 52.352
*N chanx_left_in[17]:12 *C 69.900 52.360
*N chanx_left_in[17]:13 *C 63.745 53.380
*N chanx_left_in[17]:14 *C 63.940 53.380
*N chanx_left_in[17]:15 *C 63.940 53.335
*N chanx_left_in[17]:16 *C 63.940 52.418
*N chanx_left_in[17]:17 *C 63.940 52.360
*N chanx_left_in[17]:18 *C 36.645 53.380
*N chanx_left_in[17]:19 *C 36.800 53.380
*N chanx_left_in[17]:20 *C 36.800 53.335
*N chanx_left_in[17]:21 *C 36.800 52.418
*N chanx_left_in[17]:22 *C 36.800 52.360
*N chanx_left_in[17]:23 *C 34.960 52.360
*N chanx_left_in[17]:24 *C 34.960 53.040
*N chanx_left_in[17]:25 *C 2.780 53.040
*N chanx_left_in[17]:26 *C 2.760 53.033
*N chanx_left_in[17]:27 *C 2.760 48.968
*N chanx_left_in[17]:28 *C 2.740 48.960

*CAP
0 chanx_left_in[17] 0.000131039
1 mux_bottom_ipin_1\/mux_l2_in_2_:A0 1e-06
2 mux_bottom_ipin_13\/mux_l2_in_2_:A0 1e-06
3 BUFT_P_84:A 1e-06
4 chanx_left_in[17]:4 0.0001070395
5 chanx_left_in[17]:5 3.670846e-05
6 chanx_left_in[17]:6 4.212888e-05
7 chanx_left_in[17]:7 0.0001070395
8 chanx_left_in[17]:8 0.0004121288
9 chanx_left_in[17]:9 0.0004828113
10 chanx_left_in[17]:10 0.00186871
11 chanx_left_in[17]:11 0.001798028
12 chanx_left_in[17]:12 0.0003369373
13 chanx_left_in[17]:13 4.899568e-05
14 chanx_left_in[17]:14 5.312576e-05
15 chanx_left_in[17]:15 7.3149e-05
16 chanx_left_in[17]:16 7.3149e-05
17 chanx_left_in[17]:17 0.001731563
18 chanx_left_in[17]:18 4.63133e-05
19 chanx_left_in[17]:19 5.077215e-05
20 chanx_left_in[17]:20 9.085288e-05
21 chanx_left_in[17]:21 9.085288e-05
22 chanx_left_in[17]:22 0.001517118
23 chanx_left_in[17]:23 0.0001733848
24 chanx_left_in[17]:24 0.001938178
25 chanx_left_in[17]:25 0.001887285
26 chanx_left_in[17]:26 0.0002808667
27 chanx_left_in[17]:27 0.0002808667
28 chanx_left_in[17]:28 0.000131039
29 chanx_left_in[17]:11 chanx_left_in[0]:22 0.0008770785
30 chanx_left_in[17]:10 chanx_left_in[0]:23 0.0008770785
31 chanx_left_in[17]:17 chanx_right_in[19]:22 0.0001284571
32 chanx_left_in[17]:17 chanx_right_in[19]:23 0.0001626352
33 chanx_left_in[17]:25 chanx_right_in[19]:10 7.036969e-05
34 chanx_left_in[17]:25 chanx_right_in[19]:15 2.565305e-05
35 chanx_left_in[17]:25 chanx_right_in[19]:17 3.269645e-05
36 chanx_left_in[17]:22 chanx_right_in[19]:22 0.0002047364
37 chanx_left_in[17]:22 chanx_right_in[19]:17 0.0001284571
38 chanx_left_in[17]:24 chanx_right_in[19]:22 3.269645e-05
39 chanx_left_in[17]:24 chanx_right_in[19]:14 7.036969e-05
40 chanx_left_in[17]:24 chanx_right_in[19]:16 2.565305e-05
41 chanx_left_in[17]:23 chanx_right_in[19]:17 4.210126e-05
42 chanx_left_in[17]:17 prog_clk[0]:216 0.0001094542
43 chanx_left_in[17]:17 prog_clk[0]:207 0.00015474
44 chanx_left_in[17]:25 prog_clk[0]:115 5.503239e-05
45 chanx_left_in[17]:25 prog_clk[0]:111 5.673308e-05
46 chanx_left_in[17]:25 prog_clk[0]:110 3.654844e-06
47 chanx_left_in[17]:21 prog_clk[0]:221 4.906409e-07
48 chanx_left_in[17]:22 prog_clk[0]:217 0.0001094542
49 chanx_left_in[17]:22 prog_clk[0]:216 0.00015474
50 chanx_left_in[17]:20 prog_clk[0]:218 4.906409e-07
51 chanx_left_in[17]:24 prog_clk[0]:114 5.503239e-05
52 chanx_left_in[17]:24 prog_clk[0]:106 3.654844e-06
53 chanx_left_in[17]:24 prog_clk[0]:110 5.673308e-05
54 chanx_left_in[17]:25 mux_tree_tapbuf_size10_1_sram[3]:9 0.0002732082
55 chanx_left_in[17]:24 mux_tree_tapbuf_size10_1_sram[3]:10 0.0002732082
56 chanx_left_in[17]:24 mux_tree_tapbuf_size10_1_sram[3]:12 8.312997e-06
57 chanx_left_in[17]:23 mux_tree_tapbuf_size10_1_sram[3]:11 8.312997e-06
58 chanx_left_in[17]:17 optlc_net_95:32 9.425299e-06
59 chanx_left_in[17]:17 optlc_net_95:31 0.0001169952
60 chanx_left_in[17]:17 optlc_net_95:30 5.313754e-05
61 chanx_left_in[17]:25 optlc_net_95:38 0.0005474199
62 chanx_left_in[17]:25 optlc_net_95:34 6.525908e-06
63 chanx_left_in[17]:12 optlc_net_95:29 5.313754e-05
64 chanx_left_in[17]:12 optlc_net_95:31 9.425299e-06
65 chanx_left_in[17]:22 optlc_net_95:32 0.0001169952
66 chanx_left_in[17]:19 optlc_net_95:42 1.354538e-05
67 chanx_left_in[17]:18 optlc_net_95:41 1.354538e-05
68 chanx_left_in[17]:24 optlc_net_95:39 0.0005474199
69 chanx_left_in[17]:24 optlc_net_95:35 6.525908e-06

*RES
0 chanx_left_in[17] chanx_left_in[17]:28 0.0002365667
1 chanx_left_in[17]:13 mux_bottom_ipin_13\/mux_l2_in_2_:A0 0.152
2 chanx_left_in[17]:14 chanx_left_in[17]:13 0.0001059783
3 chanx_left_in[17]:15 chanx_left_in[17]:14 0.0045
4 chanx_left_in[17]:16 chanx_left_in[17]:15 0.0008191965
5 chanx_left_in[17]:17 chanx_left_in[17]:16 0.00341
6 chanx_left_in[17]:17 chanx_left_in[17]:12 0.0009337332
7 chanx_left_in[17]:25 chanx_left_in[17]:24 0.005041533
8 chanx_left_in[17]:26 chanx_left_in[17]:25 0.00341
9 chanx_left_in[17]:28 chanx_left_in[17]:27 0.00341
10 chanx_left_in[17]:27 chanx_left_in[17]:26 0.00063685
11 chanx_left_in[17]:12 chanx_left_in[17]:11 0.00341
12 chanx_left_in[17]:11 chanx_left_in[17]:10 0.005218958
13 chanx_left_in[17]:7 chanx_left_in[17]:6 0.00341
14 chanx_left_in[17]:7 chanx_left_in[17]:4 0.0001039141
15 chanx_left_in[17]:8 chanx_left_in[17]:7 0.00341
16 chanx_left_in[17]:6 chanx_left_in[17]:5 0.0045
17 chanx_left_in[17]:5 BUFT_P_84:A 0.152
18 chanx_left_in[17]:21 chanx_left_in[17]:20 0.0008191965
19 chanx_left_in[17]:22 chanx_left_in[17]:21 0.00341
20 chanx_left_in[17]:22 chanx_left_in[17]:17 0.004251933
21 chanx_left_in[17]:19 chanx_left_in[17]:18 8.423914e-05
22 chanx_left_in[17]:20 chanx_left_in[17]:19 0.0045
23 chanx_left_in[17]:18 mux_bottom_ipin_1\/mux_l2_in_2_:A0 0.152
24 chanx_left_in[17]:24 chanx_left_in[17]:23 0.0001065333
25 chanx_left_in[17]:23 chanx_left_in[17]:22 0.0002882667
26 chanx_left_in[17]:9 chanx_left_in[17]:8 0.0006380249
27 chanx_left_in[17]:10 chanx_left_in[17]:9 0.0001441333

*END

*D_NET chanx_left_in[18] 0.0172432 //LENGTH 94.890 LUMPCC 0.008917389 DR

*CONN
*P chanx_left_in[18] I *L 0.29796 *C 1.230 25.160
*I mux_bottom_ipin_8\/mux_l2_in_2_:A0 I *L 0.001631 *C 35.250 22.780
*I mux_bottom_ipin_6\/mux_l2_in_2_:A0 I *L 0.001631 *C 55.030 20.740
*I BUFT_P_85:A I *L 0.001767 *C 70.380 28.560
*I mux_bottom_ipin_14\/mux_l2_in_2_:A0 I *L 0.001631 *C 59.170 20.740
*N chanx_left_in[18]:5 *C 59.133 20.740
*N chanx_left_in[18]:6 *C 70.380 28.560
*N chanx_left_in[18]:7 *C 70.380 28.515
*N chanx_left_in[18]:8 *C 70.380 26.578
*N chanx_left_in[18]:9 *C 70.373 26.520
*N chanx_left_in[18]:10 *C 56.588 26.520
*N chanx_left_in[18]:11 *C 56.580 26.463
*N chanx_left_in[18]:12 *C 56.580 20.785
*N chanx_left_in[18]:13 *C 56.580 20.740
*N chanx_left_in[18]:14 *C 55.068 20.740
*N chanx_left_in[18]:15 *C 55.660 20.740
*N chanx_left_in[18]:16 *C 55.660 20.695
*N chanx_left_in[18]:17 *C 55.660 17.725
*N chanx_left_in[18]:18 *C 55.615 17.680
*N chanx_left_in[18]:19 *C 54.325 17.680
*N chanx_left_in[18]:20 *C 54.280 17.725
*N chanx_left_in[18]:21 *C 54.280 18.303
*N chanx_left_in[18]:22 *C 54.273 18.360
*N chanx_left_in[18]:23 *C 46.940 18.360
*N chanx_left_in[18]:24 *C 46.920 18.367
*N chanx_left_in[18]:25 *C 46.920 19.713
*N chanx_left_in[18]:26 *C 46.900 19.720
*N chanx_left_in[18]:27 *C 34.968 19.720
*N chanx_left_in[18]:28 *C 34.960 19.777
*N chanx_left_in[18]:29 *C 35.250 22.780
*N chanx_left_in[18]:30 *C 34.960 22.780
*N chanx_left_in[18]:31 *C 34.960 22.780
*N chanx_left_in[18]:32 *C 34.960 25.103
*N chanx_left_in[18]:33 *C 34.953 25.160

*CAP
0 chanx_left_in[18] 0.0009510978
1 mux_bottom_ipin_8\/mux_l2_in_2_:A0 1e-06
2 mux_bottom_ipin_6\/mux_l2_in_2_:A0 1e-06
3 BUFT_P_85:A 1e-06
4 mux_bottom_ipin_14\/mux_l2_in_2_:A0 1e-06
5 chanx_left_in[18]:5 0.0001424039
6 chanx_left_in[18]:6 4.178347e-05
7 chanx_left_in[18]:7 0.0001412538
8 chanx_left_in[18]:8 0.0001412538
9 chanx_left_in[18]:9 0.0007416283
10 chanx_left_in[18]:10 0.0007416283
11 chanx_left_in[18]:11 0.0002758434
12 chanx_left_in[18]:12 0.0002758434
13 chanx_left_in[18]:13 0.0002400096
14 chanx_left_in[18]:14 4.639721e-05
15 chanx_left_in[18]:15 0.0001363605
16 chanx_left_in[18]:16 0.0001911024
17 chanx_left_in[18]:17 0.0001911024
18 chanx_left_in[18]:18 0.0001053109
19 chanx_left_in[18]:19 0.0001053109
20 chanx_left_in[18]:20 6.511265e-05
21 chanx_left_in[18]:21 6.511265e-05