*SPEF "1481-1998"
*DESIGN "cbx_1__2_"
*DATE "Mon Oct 26 23:03:32 2020"
*
*
*
*
*DIVIDER /
*DELIMITER :
*T_UNIT 1 NS
*C_UNIT 1 PF
*R_UNIT 1 KOHM
*L_UNIT 1 HENRY

// XY_UNIT 1 UM
// PARASITIC_TECH nominal at 25.000 degree

*PORTS
prog_clk[0] I *C 3.220 0.680
chanx_left_in[0] I *C 0.690 46.240
chanx_left_in[1] I *C 0.690 20.400
chanx_left_in[2] I *C 0.690 25.840
chanx_left_in[3] I *C 0.690 55.760
chanx_left_in[4] I *C 0.690 51.680
chanx_left_in[5] I *C 0.690 68.000
chanx_left_in[6] I *C 0.690 57.120
chanx_left_in[7] I *C 0.690 66.640
chanx_left_in[8] I *C 0.690 58.480
chanx_left_in[9] I *C 0.690 17.680
chanx_left_in[10] I *C 0.690 24.480
chanx_left_in[11] I *C 0.690 42.160
chanx_left_in[12] I *C 0.690 14.960
chanx_left_in[13] I *C 0.690 39.440
chanx_left_in[14] I *C 0.690 63.920
chanx_left_in[15] I *C 0.690 40.800
chanx_left_in[16] I *C 0.690 36.720
chanx_left_in[17] I *C 0.690 61.200
chanx_left_in[18] I *C 0.690 62.560
chanx_left_in[19] I *C 0.690 19.040
chanx_right_in[0] I *C 104.190 53.040
chanx_right_in[1] I *C 104.190 66.640
chanx_right_in[2] I *C 104.190 6.800
chanx_right_in[3] I *C 104.190 21.760
chanx_right_in[4] I *C 104.190 31.280
chanx_right_in[5] I *C 104.190 43.520
chanx_right_in[6] I *C 104.190 16.320
chanx_right_in[7] I *C 104.190 20.400
chanx_right_in[8] I *C 104.190 58.480
chanx_right_in[9] I *C 104.190 38.080
chanx_right_in[10] I *C 104.190 70.720
chanx_right_in[11] I *C 104.190 65.280
chanx_right_in[12] I *C 104.190 55.760
chanx_right_in[13] I *C 104.190 59.840
chanx_right_in[14] I *C 104.190 42.160
chanx_right_in[15] I *C 104.190 17.680
chanx_right_in[16] I *C 104.190 27.200
chanx_right_in[17] I *C 104.190 63.920
chanx_right_in[18] I *C 104.190 39.440
chanx_right_in[19] I *C 104.190 61.200
ccff_head[0] I *C 104.190 50.320
chanx_left_out[0] O *C 2.300 75.480
chanx_left_out[1] O *C 0.690 29.920
chanx_left_out[2] O *C 0.690 72.080
chanx_left_out[3] O *C 0.690 69.360
chanx_left_out[4] O *C 0.690 6.800
chanx_left_out[5] O *C 0.690 35.360
chanx_left_out[6] O *C 0.690 4.080
chanx_left_out[7] O *C 0.690 23.120
chanx_left_out[8] O *C 0.690 50.320
chanx_left_out[9] O *C 0.690 8.160
chanx_left_out[10] O *C 0.690 53.040
chanx_left_out[11] O *C 0.690 31.280
chanx_left_out[12] O *C 0.690 47.600
chanx_left_out[13] O *C 0.690 9.520
chanx_left_out[14] O *C 4.600 0.680
chanx_left_out[15] O *C 0.690 28.560
chanx_left_out[16] O *C 0.690 13.600
chanx_left_out[17] O *C 0.690 34.000
chanx_left_out[18] O *C 0.690 12.240
chanx_left_out[19] O *C 0.690 44.880
chanx_right_out[0] O *C 104.190 12.240
chanx_right_out[1] O *C 104.190 14.960
chanx_right_out[2] O *C 102.580 75.480
chanx_right_out[3] O *C 104.190 34.000
chanx_right_out[4] O *C 104.190 23.120
chanx_right_out[5] O *C 102.580 0.680
chanx_right_out[6] O *C 104.190 4.080
chanx_right_out[7] O *C 104.190 44.880
chanx_right_out[8] O *C 104.190 48.960
chanx_right_out[9] O *C 104.190 72.080
chanx_right_out[10] O *C 104.190 9.520
chanx_right_out[11] O *C 104.190 36.720
chanx_right_out[12] O *C 104.190 5.440
chanx_right_out[13] O *C 104.190 47.600
chanx_right_out[14] O *C 104.190 32.640
chanx_right_out[15] O *C 104.190 69.360
chanx_right_out[16] O *C 104.190 28.560
chanx_right_out[17] O *C 104.190 25.840
chanx_right_out[18] O *C 104.190 10.880
chanx_right_out[19] O *C 104.190 54.400
top_grid_pin_0_[0] O *C 79.120 75.480
ccff_tail[0] O *C 57.500 75.480
VDD I *C 52.440 38.080
VSS I *C 52.440 38.080

*D_NET chanx_left_in[0] 0.01601104 //LENGTH 141.895 LUMPCC 0.002133131 DR

*CONN
*P chanx_left_in[0] I *L 0.29796 *C 1.230 46.240
*I mux_bottom_ipin_0\/mux_l1_in_0_:A1 I *L 0.00198 *C 83.720 56.100
*I BUFT_P_127:A I *L 0.001767 *C 97.980 17.680
*N chanx_left_in[0]:3 *C 97.943 17.680
*N chanx_left_in[0]:4 *C 93.885 17.680
*N chanx_left_in[0]:5 *C 93.840 17.725
*N chanx_left_in[0]:6 *C 93.840 46.875
*N chanx_left_in[0]:7 *C 93.795 46.920
*N chanx_left_in[0]:8 *C 83.720 46.920
*N chanx_left_in[0]:9 *C 83.720 56.100
*N chanx_left_in[0]:10 *C 83.720 56.055
*N chanx_left_in[0]:11 *C 83.720 47.645
*N chanx_left_in[0]:12 *C 83.720 47.570
*N chanx_left_in[0]:13 *C 75.945 47.600
*N chanx_left_in[0]:14 *C 75.900 47.555
*N chanx_left_in[0]:15 *C 75.900 46.977
*N chanx_left_in[0]:16 *C 75.892 46.920
*N chanx_left_in[0]:17 *C 43.700 46.920
*N chanx_left_in[0]:18 *C 43.700 46.240
*N chanx_left_in[0]:19 *C 23.920 46.240
*N chanx_left_in[0]:20 *C 23.920 46.920
*N chanx_left_in[0]:21 *C 14.720 46.920
*N chanx_left_in[0]:22 *C 14.720 46.240

*CAP
0 chanx_left_in[0] 0.0008677986
1 mux_bottom_ipin_0\/mux_l1_in_0_:A1 1e-06
2 BUFT_P_127:A 1e-06
3 chanx_left_in[0]:3 0.0002283317
4 chanx_left_in[0]:4 0.0002283317
5 chanx_left_in[0]:5 0.001171654
6 chanx_left_in[0]:6 0.001171654
7 chanx_left_in[0]:7 0.0006159884
8 chanx_left_in[0]:8 0.0006616273
9 chanx_left_in[0]:9 3.582121e-05
10 chanx_left_in[0]:10 0.000431737
11 chanx_left_in[0]:11 0.000431737
12 chanx_left_in[0]:12 0.0004586014
13 chanx_left_in[0]:13 0.0004129626
14 chanx_left_in[0]:14 5.185365e-05
15 chanx_left_in[0]:15 5.185365e-05
16 chanx_left_in[0]:16 0.001583987
17 chanx_left_in[0]:17 0.001632724
18 chanx_left_in[0]:18 0.0008284239
19 chanx_left_in[0]:19 0.0008248067
20 chanx_left_in[0]:20 0.0006239844
21 chanx_left_in[0]:21 0.0006365478
22 chanx_left_in[0]:22 0.0009254818
23 chanx_left_in[0]:6 chanx_left_in[19]:4 0.0003119061
24 chanx_left_in[0]:5 chanx_left_in[19]:5 0.0003119061
25 chanx_left_in[0]:16 chanx_right_in[5]:15 0.0001725555
26 chanx_left_in[0]:16 chanx_right_in[5]:17 5.365254e-05
27 chanx_left_in[0]:16 chanx_right_in[5]:19 8.587097e-05
28 chanx_left_in[0]:6 chanx_right_in[5]:19 1.490829e-05
29 chanx_left_in[0]:5 chanx_right_in[5]:20 1.490829e-05
30 chanx_left_in[0]:21 chanx_right_in[5]:14 2.477718e-05
31 chanx_left_in[0]:20 chanx_right_in[5]:15 2.477718e-05
32 chanx_left_in[0]:19 chanx_right_in[5]:14 0.0003384625
33 chanx_left_in[0]:18 chanx_right_in[5]:15 0.0003384625
34 chanx_left_in[0]:17 chanx_right_in[5]:14 0.0001725555
35 chanx_left_in[0]:17 chanx_right_in[5]:16 5.365254e-05
36 chanx_left_in[0]:17 chanx_right_in[5]:18 8.587097e-05
37 chanx_left_in[0]:6 ropt_net_191:5 6.443253e-05
38 chanx_left_in[0]:5 ropt_net_191:4 6.443253e-05

*RES
0 chanx_left_in[0] chanx_left_in[0]:22 0.002113433
1 chanx_left_in[0]:13 chanx_left_in[0]:12 0.006941965
2 chanx_left_in[0]:14 chanx_left_in[0]:13 0.0045
3 chanx_left_in[0]:15 chanx_left_in[0]:14 0.000515625
4 chanx_left_in[0]:16 chanx_left_in[0]:15 0.00341
5 chanx_left_in[0]:7 chanx_left_in[0]:6 0.0045
6 chanx_left_in[0]:6 chanx_left_in[0]:5 0.02602679
7 chanx_left_in[0]:4 chanx_left_in[0]:3 0.003622768
8 chanx_left_in[0]:5 chanx_left_in[0]:4 0.0045
9 chanx_left_in[0]:3 BUFT_P_127:A 0.152
10 chanx_left_in[0]:12 chanx_left_in[0]:11 0.0045
11 chanx_left_in[0]:12 chanx_left_in[0]:8 0.0005803572
12 chanx_left_in[0]:11 chanx_left_in[0]:10 0.007508929
13 chanx_left_in[0]:9 mux_bottom_ipin_0\/mux_l1_in_0_:A1 0.152
14 chanx_left_in[0]:10 chanx_left_in[0]:9 0.0045
15 chanx_left_in[0]:8 chanx_left_in[0]:7 0.008995537
16 chanx_left_in[0]:22 chanx_left_in[0]:21 0.0001065333
17 chanx_left_in[0]:21 chanx_left_in[0]:20 0.001441333
18 chanx_left_in[0]:20 chanx_left_in[0]:19 0.0001065333
19 chanx_left_in[0]:19 chanx_left_in[0]:18 0.003098866
20 chanx_left_in[0]:18 chanx_left_in[0]:17 0.0001065333
21 chanx_left_in[0]:17 chanx_left_in[0]:16 0.005043492

*END

*D_NET chanx_left_in[11] 0.01064693 //LENGTH 94.020 LUMPCC 0.0009585019 DR

*CONN
*P chanx_left_in[11] I *L 0.29796 *C 1.230 42.160
*I BUFT_RR_53:A I *L 0.001767 *C 93.840 42.160
*N chanx_left_in[11]:2 *C 93.803 42.160
*N chanx_left_in[11]:3 *C 93.380 42.160
*N chanx_left_in[11]:4 *C 93.380 42.500
*N chanx_left_in[11]:5 *C 54.440 42.500
*N chanx_left_in[11]:6 *C 4.645 42.500
*N chanx_left_in[11]:7 *C 4.600 42.500
*N chanx_left_in[11]:8 *C 4.600 42.160
*N chanx_left_in[11]:9 *C 4.593 42.160

*CAP
0 chanx_left_in[11] 0.0001729252
1 BUFT_RR_53:A 1e-06
2 chanx_left_in[11]:2 4.739605e-05
3 chanx_left_in[11]:3 7.328165e-05
4 chanx_left_in[11]:4 0.001993022
5 chanx_left_in[11]:5 0.004543948
6 chanx_left_in[11]:6 0.002576811
7 chanx_left_in[11]:7 5.173113e-05
8 chanx_left_in[11]:8 5.538455e-05
9 chanx_left_in[11]:9 0.0001729252
10 chanx_left_in[11] chanx_left_in[15] 8.385065e-05
11 chanx_left_in[11]:6 chanx_left_in[15]:19 6.04579e-05
12 chanx_left_in[11]:9 chanx_left_in[15]:20 8.385065e-05
13 chanx_left_in[11]:4 chanx_left_in[15]:13 0.0002833297
14 chanx_left_in[11]:5 chanx_left_in[15]:14 0.0002833297
15 chanx_left_in[11]:5 chanx_left_in[15]:18 6.04579e-05
16 chanx_left_in[11]:6 ropt_net_215:7 5.161266e-05
17 chanx_left_in[11]:5 ropt_net_215:6 5.161266e-05

*RES
0 chanx_left_in[11] chanx_left_in[11]:9 0.0005267917
1 chanx_left_in[11]:2 BUFT_RR_53:A 0.152
2 chanx_left_in[11]:6 chanx_left_in[11]:5 0.04445983
3 chanx_left_in[11]:7 chanx_left_in[11]:6 0.0045
4 chanx_left_in[11]:8 chanx_left_in[11]:7 0.0001634615
5 chanx_left_in[11]:9 chanx_left_in[11]:8 0.00341
6 chanx_left_in[11]:4 chanx_left_in[11]:3 0.0003035715
7 chanx_left_in[11]:3 chanx_left_in[11]:2 0.0003772322
8 chanx_left_in[11]:5 chanx_left_in[11]:4 0.03476786

*END

*D_NET chanx_left_in[12] 0.01052138 //LENGTH 96.145 LUMPCC 0.001628611 DR

*CONN
*P chanx_left_in[12] I *L 0.29796 *C 1.230 14.960
*I BUFT_P_139:A I *L 0.001776 *C 90.160 9.520
*N chanx_left_in[12]:2 *C 90.123 9.520
*N chanx_left_in[12]:3 *C 88.780 9.520
*N chanx_left_in[12]:4 *C 88.780 9.180
*N chanx_left_in[12]:5 *C 74.220 9.180
*N chanx_left_in[12]:6 *C 24.425 9.180
*N chanx_left_in[12]:7 *C 24.380 9.225
*N chanx_left_in[12]:8 *C 24.380 14.902
*N chanx_left_in[12]:9 *C 24.373 14.960

*CAP
0 chanx_left_in[12] 0.001370031
1 BUFT_P_139:A 1e-06
2 chanx_left_in[12]:2 9.554208e-05
3 chanx_left_in[12]:3 0.0001231996
4 chanx_left_in[12]:4 0.0005956105
5 chanx_left_in[12]:5 0.002673961
6 chanx_left_in[12]:6 0.002106007
7 chanx_left_in[12]:7 0.0002786923
8 chanx_left_in[12]:8 0.0002786923
9 chanx_left_in[12]:9 0.001370031
10 chanx_left_in[12]:6 chanx_left_in[5]:9 0.0005226589
11 chanx_left_in[12]:4 chanx_left_in[5]:6 9.268976e-05
12 chanx_left_in[12]:4 chanx_left_in[5]:8 0.0001989571
13 chanx_left_in[12]:5 chanx_left_in[5]:7 9.268976e-05
14 chanx_left_in[12]:5 chanx_left_in[5]:8 0.0005226589
15 chanx_left_in[12]:5 chanx_left_in[5]:9 0.0001989571

*RES
0 chanx_left_in[12] chanx_left_in[12]:9 0.003625658
1 chanx_left_in[12]:2 BUFT_P_139:A 0.152
2 chanx_left_in[12]:6 chanx_left_in[12]:5 0.04445982
3 chanx_left_in[12]:7 chanx_left_in[12]:6 0.0045
4 chanx_left_in[12]:8 chanx_left_in[12]:7 0.005069197
5 chanx_left_in[12]:9 chanx_left_in[12]:8 0.00341
6 chanx_left_in[12]:4 chanx_left_in[12]:3 0.0003035715
7 chanx_left_in[12]:3 chanx_left_in[12]:2 0.001198661
8 chanx_left_in[12]:5 chanx_left_in[12]:4 0.013

*END

*D_NET chanx_left_in[13] 0.01427985 //LENGTH 119.810 LUMPCC 0.004566592 DR

*CONN
*P chanx_left_in[13] I *L 0.29796 *C 1.230 39.440
*I BUFT_P_140:A I *L 0.001776 *C 97.825 61.200
*N chanx_left_in[13]:2 *C 97.788 61.200
*N chanx_left_in[13]:3 *C 96.185 61.200
*N chanx_left_in[13]:4 *C 96.140 61.155
*N chanx_left_in[13]:5 *C 96.140 40.165
*N chanx_left_in[13]:6 *C 96.095 40.120
*N chanx_left_in[13]:7 *C 89.400 40.120
*N chanx_left_in[13]:8 *C 39.605 40.120
*N chanx_left_in[13]:9 *C 39.560 40.075
*N chanx_left_in[13]:10 *C 39.560 39.498
*N chanx_left_in[13]:11 *C 39.553 39.440

*CAP
0 chanx_left_in[13] 0.001093629
1 BUFT_P_140:A 1e-06
2 chanx_left_in[13]:2 0.0001031172
3 chanx_left_in[13]:3 0.0001031172
4 chanx_left_in[13]:4 0.0008573252
5 chanx_left_in[13]:5 0.0008573252
6 chanx_left_in[13]:6 0.0003530019
7 chanx_left_in[13]:7 0.002750682
8 chanx_left_in[13]:8 0.00239768
9 chanx_left_in[13]:9 5.137328e-05
10 chanx_left_in[13]:10 5.137328e-05
11 chanx_left_in[13]:11 0.001093629
12 chanx_left_in[13]:4 chanx_left_in[7]:6 0.000364898
13 chanx_left_in[13]:5 chanx_left_in[7]:5 0.000364898
14 chanx_left_in[13] chanx_left_in[15] 0.0003120771
15 chanx_left_in[13] chanx_left_in[15]:19 0.0004156366
16 chanx_left_in[13]:11 chanx_left_in[15]:20 0.0003120771
17 chanx_left_in[13]:11 chanx_left_in[15]:18 0.0004156366
18 chanx_left_in[13] chanx_left_in[16] 0.0004559864
19 chanx_left_in[13]:11 chanx_left_in[16]:10 0.0004559864
20 chanx_left_in[13] chanx_right_in[9]:14 1.562118e-05
21 chanx_left_in[13]:6 chanx_right_in[9]:16 7.347155e-05
22 chanx_left_in[13]:8 chanx_right_in[9]:14 0.0005365132
23 chanx_left_in[13]:8 chanx_right_in[9]:15 0.0001090921
24 chanx_left_in[13]:11 chanx_right_in[9]:15 1.562118e-05
25 chanx_left_in[13]:7 chanx_right_in[9]:16 0.0001090921
26 chanx_left_in[13]:7 chanx_right_in[9]:15 0.0006099847

*RES
0 chanx_left_in[13] chanx_left_in[13]:11 0.006003858
1 chanx_left_in[13]:2 BUFT_P_140:A 0.152
2 chanx_left_in[13]:3 chanx_left_in[13]:2 0.001430804
3 chanx_left_in[13]:4 chanx_left_in[13]:3 0.0045
4 chanx_left_in[13]:6 chanx_left_in[13]:5 0.0045
5 chanx_left_in[13]:5 chanx_left_in[13]:4 0.01874107
6 chanx_left_in[13]:8 chanx_left_in[13]:7 0.04445983
7 chanx_left_in[13]:9 chanx_left_in[13]:8 0.0045
8 chanx_left_in[13]:10 chanx_left_in[13]:9 0.000515625
9 chanx_left_in[13]:11 chanx_left_in[13]:10 0.00341
10 chanx_left_in[13]:7 chanx_left_in[13]:6 0.005977679

*END

*D_NET chanx_left_in[14] 0.01937084 //LENGTH 133.165 LUMPCC 0.01058933 DR

*CONN
*P chanx_left_in[14] I *L 0.29796 *C 1.230 63.920
*I BUFT_P_141:A I *L 0.001776 *C 94.760 28.560
*N chanx_left_in[14]:2 *C 94.797 28.560
*N chanx_left_in[14]:3 *C 96.095 28.560
*N chanx_left_in[14]:4 *C 96.140 28.605
*N chanx_left_in[14]:5 *C 96.140 30.543
*N chanx_left_in[14]:6 *C 96.133 30.600
*N chanx_left_in[14]:7 *C 86.175 30.600
*N chanx_left_in[14]:8 *C 36.348 30.600
*N chanx_left_in[14]:9 *C 36.340 30.658
*N chanx_left_in[14]:10 *C 36.340 63.863
*N chanx_left_in[14]:11 *C 36.333 63.920

*CAP
0 chanx_left_in[14] 0.0008355
1 BUFT_P_141:A 1e-06
2 chanx_left_in[14]:2 0.0001042739
3 chanx_left_in[14]:3 0.0001042739
4 chanx_left_in[14]:4 0.0001165252
5 chanx_left_in[14]:5 0.0001165252
6 chanx_left_in[14]:6 0.0002319055
7 chanx_left_in[14]:7 0.001694511
8 chanx_left_in[14]:8 0.001462605
9 chanx_left_in[14]:9 0.001639445
10 chanx_left_in[14]:10 0.001639445
11 chanx_left_in[14]:11 0.0008354998
12 chanx_left_in[14] chanx_left_in[7] 0.0004176234
13 chanx_left_in[14]:11 chanx_left_in[7]:8 0.0004176234
14 chanx_left_in[14]:6 chanx_left_in[17]:5 0.0001270016
15 chanx_left_in[14]:8 chanx_left_in[17]:7 0.0006241128
16 chanx_left_in[14]:8 chanx_left_in[17]:6 0.0005423567
17 chanx_left_in[14]:7 chanx_left_in[17]:5 0.0005423567
18 chanx_left_in[14]:7 chanx_left_in[17]:6 0.0007511143
19 chanx_left_in[14] chanx_left_in[18] 0.0003160884
20 chanx_left_in[14] chanx_left_in[18]:15 0.001253014
21 chanx_left_in[14]:11 chanx_left_in[18]:14 0.001253014
22 chanx_left_in[14]:11 chanx_left_in[18]:16 0.0003160884
23 chanx_left_in[14]:6 chanx_right_in[4] 0.0004843555
24 chanx_left_in[14]:7 chanx_right_in[4]:21 0.0004843555
25 chanx_left_in[14]:8 prog_clk[0]:24 0.001056499
26 chanx_left_in[14]:8 prog_clk[0]:23 0.0004016801
27 chanx_left_in[14]:7 prog_clk[0]:23 0.001056499
28 chanx_left_in[14]:7 prog_clk[0]:18 0.0004016801
29 chanx_left_in[14]:4 ropt_net_184:5 8.763665e-06
30 chanx_left_in[14]:5 ropt_net_184:4 8.763665e-06
31 chanx_left_in[14]:6 ropt_net_184:6 6.316776e-05
32 chanx_left_in[14]:7 ropt_net_184:7 6.316776e-05

*RES
0 chanx_left_in[14] chanx_left_in[14]:11 0.005499391
1 chanx_left_in[14]:2 BUFT_P_141:A 0.152
2 chanx_left_in[14]:3 chanx_left_in[14]:2 0.001158482
3 chanx_left_in[14]:4 chanx_left_in[14]:3 0.0045
4 chanx_left_in[14]:5 chanx_left_in[14]:4 0.001729911
5 chanx_left_in[14]:6 chanx_left_in[14]:5 0.00341
6 chanx_left_in[14]:9 chanx_left_in[14]:8 0.00341
7 chanx_left_in[14]:8 chanx_left_in[14]:7 0.007806308
8 chanx_left_in[14]:10 chanx_left_in[14]:9 0.02964732
9 chanx_left_in[14]:11 chanx_left_in[14]:10 0.00341
10 chanx_left_in[14]:7 chanx_left_in[14]:6 0.001560008

*END

*D_NET chanx_left_in[15] 0.01817899 //LENGTH 139.070 LUMPCC 0.007384352 DR

*CONN
*P chanx_left_in[15] I *L 0.29796 *C 1.230 40.800
*I ropt_mt_inst_783:A I *L 0.001767 *C 93.380 69.360
*N chanx_left_in[15]:2 *C 93.380 69.360
*N chanx_left_in[15]:3 *C 93.380 69.020
*N chanx_left_in[15]:4 *C 101.155 69.020
*N chanx_left_in[15]:5 *C 101.200 68.975
*N chanx_left_in[15]:6 *C 101.200 64.305
*N chanx_left_in[15]:7 *C 101.155 64.260
*N chanx_left_in[15]:8 *C 92.460 64.260
*N chanx_left_in[15]:9 *C 92.460 63.920
*N chanx_left_in[15]:10 *C 91.125 63.920
*N chanx_left_in[15]:11 *C 91.080 63.875
*N chanx_left_in[15]:12 *C 91.080 41.865
*N chanx_left_in[15]:13 *C 91.035 41.820
*N chanx_left_in[15]:14 *C 75.945 41.820
*N chanx_left_in[15]:15 *C 75.900 41.820
*N chanx_left_in[15]:16 *C 75.900 41.480
*N chanx_left_in[15]:17 *C 75.892 41.480
*N chanx_left_in[15]:18 *C 63.650 41.480
*N chanx_left_in[15]:19 *C 13.800 41.480
*N chanx_left_in[15]:20 *C 13.800 40.800

*CAP
0 chanx_left_in[15] 0.0004125339
1 ropt_mt_inst_783:A 1e-06
2 chanx_left_in[15]:2 5.53547e-05
3 chanx_left_in[15]:3 0.0004267143
4 chanx_left_in[15]:4 0.000399524
5 chanx_left_in[15]:5 0.0002812571
6 chanx_left_in[15]:6 0.0002812571
7 chanx_left_in[15]:7 0.0005285072
8 chanx_left_in[15]:8 0.0005519533
9 chanx_left_in[15]:9 0.0001444871
10 chanx_left_in[15]:10 0.0001210409
11 chanx_left_in[15]:11 0.00111897
12 chanx_left_in[15]:12 0.00111897
13 chanx_left_in[15]:13 0.0006100899
14 chanx_left_in[15]:14 0.0006100899
15 chanx_left_in[15]:15 5.139439e-05
16 chanx_left_in[15]:16 5.542883e-05
17 chanx_left_in[15]:17 0.0003096818
18 chanx_left_in[15]:18 0.001751867
19 chanx_left_in[15]:19 0.001497086
20 chanx_left_in[15]:20 0.0004674348
21 chanx_left_in[15] chanx_left_in[11] 8.385065e-05
22 chanx_left_in[15]:13 chanx_left_in[11]:4 0.0002833297
23 chanx_left_in[15]:14 chanx_left_in[11]:5 0.0002833297
24 chanx_left_in[15]:20 chanx_left_in[11]:9 8.385065e-05
25 chanx_left_in[15]:19 chanx_left_in[11]:6 6.04579e-05
26 chanx_left_in[15]:18 chanx_left_in[11]:5 6.04579e-05
27 chanx_left_in[15] chanx_left_in[13] 0.0003120771
28 chanx_left_in[15]:20 chanx_left_in[13]:11 0.0003120771
29 chanx_left_in[15]:19 chanx_left_in[13] 0.0004156366
30 chanx_left_in[15]:18 chanx_left_in[13]:11 0.0004156366
31 chanx_left_in[15]:11 chanx_right_in[5]:19 1.308295e-05
32 chanx_left_in[15]:12 chanx_right_in[5]:20 1.308295e-05
33 chanx_left_in[15]:19 chanx_right_in[5]:14 0.0003349706
34 chanx_left_in[15]:18 chanx_right_in[5]:15 0.0003349706
35 chanx_left_in[15]:13 chanx_right_in[14] 5.634257e-06
36 chanx_left_in[15]:14 chanx_right_in[14]:20 5.634257e-06
37 chanx_left_in[15]:17 chanx_right_in[14] 0.0007021212
38 chanx_left_in[15]:19 chanx_right_in[14]:20 0.0008013808
39 chanx_left_in[15]:18 chanx_right_in[14] 0.0008013808
40 chanx_left_in[15]:18 chanx_right_in[14]:20 0.0007021212
41 chanx_left_in[15]:13 chanx_right_in[18]:29 5.703497e-06
42 chanx_left_in[15]:14 chanx_right_in[18]:28 5.703497e-06
43 chanx_left_in[15]:17 chanx_right_in[18]:29 0.0001891331
44 chanx_left_in[15]:19 chanx_right_in[18]:28 0.0003519382
45 chanx_left_in[15]:18 chanx_right_in[18]:28 0.0001891331
46 chanx_left_in[15]:18 chanx_right_in[18]:29 0.0003519382
47 chanx_left_in[15]:4 ropt_net_217:2 0.0001328598
48 chanx_left_in[15]:3 ropt_net_217:3 0.0001328598

*RES
0 chanx_left_in[15] chanx_left_in[15]:20 0.0019693
1 chanx_left_in[15]:2 ropt_mt_inst_783:A 0.152
2 chanx_left_in[15]:4 chanx_left_in[15]:3 0.006941965
3 chanx_left_in[15]:5 chanx_left_in[15]:4 0.0045
4 chanx_left_in[15]:7 chanx_left_in[15]:6 0.0045
5 chanx_left_in[15]:6 chanx_left_in[15]:5 0.004169643
6 chanx_left_in[15]:10 chanx_left_in[15]:9 0.001191964
7 chanx_left_in[15]:11 chanx_left_in[15]:10 0.0045
8 chanx_left_in[15]:13 chanx_left_in[15]:12 0.0045
9 chanx_left_in[15]:12 chanx_left_in[15]:11 0.01965179
10 chanx_left_in[15]:14 chanx_left_in[15]:13 0.01347321
11 chanx_left_in[15]:15 chanx_left_in[15]:14 0.0045
12 chanx_left_in[15]:16 chanx_left_in[15]:15 0.0001634615
13 chanx_left_in[15]:17 chanx_left_in[15]:16 0.00341
14 chanx_left_in[15]:9 chanx_left_in[15]:8 0.0003035715
15 chanx_left_in[15]:8 chanx_left_in[15]:7 0.007763393
16 chanx_left_in[15]:3 chanx_left_in[15]:2 0.0003035715
17 chanx_left_in[15]:20 chanx_left_in[15]:19 0.0001065333
18 chanx_left_in[15]:19 chanx_left_in[15]:18 0.007809832
19 chanx_left_in[15]:18 chanx_left_in[15]:17 0.001917992

*END

*D_NET chanx_left_in[16] 0.01089088 //LENGTH 95.460 LUMPCC 0.002194746 DR

*CONN
*P chanx_left_in[16] I *L 0.29796 *C 1.230 36.720
*I mux_bottom_ipin_0\/mux_l2_in_2_:A0 I *L 0.001631 *C 67.450 28.220
*I BUFT_P_143:A I *L 0.001776 *C 86.940 28.560
*N chanx_left_in[16]:3 *C 86.940 28.560
*N chanx_left_in[16]:4 *C 86.940 28.220
*N chanx_left_in[16]:5 *C 67.487 28.220
*N chanx_left_in[16]:6 *C 67.160 28.220
*N chanx_left_in[16]:7 *C 67.160 28.265
*N chanx_left_in[16]:8 *C 67.160 36.663
*N chanx_left_in[16]:9 *C 67.153 36.720
*N chanx_left_in[16]:10 *C 51.230 36.720

*CAP
0 chanx_left_in[16] 0.001967824
1 mux_bottom_ipin_0\/mux_l2_in_2_:A0 1e-06
2 BUFT_P_143:A 1e-06
3 chanx_left_in[16]:3 5.686838e-05
4 chanx_left_in[16]:4 0.00111071
5 chanx_left_in[16]:5 0.001102054
6 chanx_left_in[16]:6 5.199009e-05
7 chanx_left_in[16]:7 0.0005497248
8 chanx_left_in[16]:8 0.0005497248
9 chanx_left_in[16]:9 0.0006687051
10 chanx_left_in[16]:10 0.002636529
11 chanx_left_in[16] chanx_left_in[13] 0.0004559864
12 chanx_left_in[16]:10 chanx_left_in[13]:11 0.0004559864
13 chanx_left_in[16] chanx_right_in[1]:11 0.0002793965
14 chanx_left_in[16]:9 chanx_right_in[1]:12 5.787588e-05
15 chanx_left_in[16]:10 chanx_right_in[1]:11 5.787588e-05
16 chanx_left_in[16]:10 chanx_right_in[1]:12 0.0002793965
17 chanx_left_in[16] chanx_right_in[18]:28 0.0001308236
18 chanx_left_in[16]:9 chanx_right_in[18]:29 0.0001732905
19 chanx_left_in[16]:10 chanx_right_in[18]:28 0.0001732905
20 chanx_left_in[16]:10 chanx_right_in[18]:29 0.0001308236

*RES
0 chanx_left_in[16] chanx_left_in[16]:10 0.007833333
1 chanx_left_in[16]:3 BUFT_P_143:A 0.152
2 chanx_left_in[16]:5 mux_bottom_ipin_0\/mux_l2_in_2_:A0 0.152
3 chanx_left_in[16]:5 chanx_left_in[16]:4 0.0173683
4 chanx_left_in[16]:6 chanx_left_in[16]:5 0.00015625
5 chanx_left_in[16]:7 chanx_left_in[16]:6 0.0045
6 chanx_left_in[16]:8 chanx_left_in[16]:7 0.007497768
7 chanx_left_in[16]:9 chanx_left_in[16]:8 0.00341
8 chanx_left_in[16]:4 chanx_left_in[16]:3 0.0003035715
9 chanx_left_in[16]:10 chanx_left_in[16]:9 0.002494525

*END

*D_NET chanx_left_in[17] 0.01515606 //LENGTH 124.160 LUMPCC 0.005732895 DR

*CONN
*P chanx_left_in[17] I *L 0.29796 *C 1.230 61.200
*I BUFT_P_144:A I *L 0.001776 *C 91.540 28.560
*N chanx_left_in[17]:2 *C 91.540 28.560
*N chanx_left_in[17]:3 *C 91.540 28.605
*N chanx_left_in[17]:4 *C 91.540 29.183
*N chanx_left_in[17]:5 *C 91.532 29.240
*N chanx_left_in[17]:6 *C 62.715 29.240
*N chanx_left_in[17]:7 *C 12.888 29.240
*N chanx_left_in[17]:8 *C 12.880 29.298
*N chanx_left_in[17]:9 *C 12.880 61.143
*N chanx_left_in[17]:10 *C 12.873 61.200

*CAP
0 chanx_left_in[17] 0.0004473215
1 BUFT_P_144:A 1e-06
2 chanx_left_in[17]:2 3.664948e-05
3 chanx_left_in[17]:3 3.414786e-05
4 chanx_left_in[17]:4 3.414786e-05
5 chanx_left_in[17]:5 0.0008210884
6 chanx_left_in[17]:6 0.002580686
7 chanx_left_in[17]:7 0.001759596
8 chanx_left_in[17]:8 0.001630602
9 chanx_left_in[17]:9 0.001630602
10 chanx_left_in[17]:10 0.0004473215
11 chanx_left_in[17]:5 chanx_left_in[10]:12 3.612313e-05
12 chanx_left_in[17]:5 chanx_left_in[10]:13 7.231431e-06
13 chanx_left_in[17]:7 chanx_left_in[10] 4.846344e-06
14 chanx_left_in[17]:7 chanx_left_in[10]:14 0.0003316326
15 chanx_left_in[17]:6 chanx_left_in[10]:13 0.0003677557
16 chanx_left_in[17]:6 chanx_left_in[10]:14 7.231431e-06
17 chanx_left_in[17]:6 chanx_left_in[10]:15 4.846344e-06
18 chanx_left_in[17]:5 chanx_left_in[14]:6 0.0001270016
19 chanx_left_in[17]:5 chanx_left_in[14]:7 0.0005423567
20 chanx_left_in[17]:7 chanx_left_in[14]:8 0.0006241128
21 chanx_left_in[17]:6 chanx_left_in[14]:7 0.0007511143
22 chanx_left_in[17]:6 chanx_left_in[14]:8 0.0005423567
23 chanx_left_in[17] chanx_left_in[18] 0.0002977766
24 chanx_left_in[17]:10 chanx_left_in[18]:16 0.0002977766
25 chanx_left_in[17]:5 chanx_right_in[16] 6.033061e-06
26 chanx_left_in[17]:5 chanx_right_in[16]:22 0.0004594341
27 chanx_left_in[17]:6 chanx_right_in[16]:21 0.0004594341
28 chanx_left_in[17]:6 chanx_right_in[16]:23 6.033061e-06
29 chanx_left_in[17]:7 prog_clk[0]:24 0.0003604833
30 chanx_left_in[17]:6 prog_clk[0]:23 0.0003604833
31 chanx_left_in[17]:3 ropt_net_184:8 2.501133e-05
32 chanx_left_in[17]:4 ropt_net_184:9 2.501133e-05
33 chanx_left_in[17]:5 ropt_net_184:6 4.440486e-05
34 chanx_left_in[17]:6 ropt_net_184:7 4.440486e-05

*RES
0 chanx_left_in[17] chanx_left_in[17]:10 0.001823992
1 chanx_left_in[17]:2 BUFT_P_144:A 0.152
2 chanx_left_in[17]:3 chanx_left_in[17]:2 0.0045
3 chanx_left_in[17]:4 chanx_left_in[17]:3 0.0005156249
4 chanx_left_in[17]:5 chanx_left_in[17]:4 0.00341
5 chanx_left_in[17]:8 chanx_left_in[17]:7 0.00341
6 chanx_left_in[17]:7 chanx_left_in[17]:6 0.007806308
7 chanx_left_in[17]:9 chanx_left_in[17]:8 0.02843304
8 chanx_left_in[17]:10 chanx_left_in[17]:9 0.00341
9 chanx_left_in[17]:6 chanx_left_in[17]:5 0.004514742

*END

*D_NET chanx_left_in[18] 0.01820246 //LENGTH 153.565 LUMPCC 0.004881831 DR

*CONN
*P chanx_left_in[18] I *L 0.29796 *C 1.230 62.560
*I ropt_mt_inst_767:A I *L 0.001767 *C 93.380 12.240
*N chanx_left_in[18]:2 *C 93.418 12.240
*N chanx_left_in[18]:3 *C 96.555 12.240
*N chanx_left_in[18]:4 *C 96.600 12.285
*N chanx_left_in[18]:5 *C 96.600 14.915
*N chanx_left_in[18]:6 *C 96.555 14.960
*N chanx_left_in[18]:7 *C 94.760 14.960
*N chanx_left_in[18]:8 *C 94.760 15.300
*N chanx_left_in[18]:9 *C 88.320 15.300
*N chanx_left_in[18]:10 *C 88.320 14.960
*N chanx_left_in[18]:11 *C 46.045 14.960
*N chanx_left_in[18]:12 *C 46.000 15.005
*N chanx_left_in[18]:13 *C 46.000 63.183
*N chanx_left_in[18]:14 *C 45.992 63.240
*N chanx_left_in[18]:15 *C 14.720 63.240
*N chanx_left_in[18]:16 *C 14.720 62.560

*CAP
0 chanx_left_in[18] 0.000364285
1 ropt_mt_inst_767:A 1e-06
2 chanx_left_in[18]:2 0.0001418142
3 chanx_left_in[18]:3 0.0001418142
4 chanx_left_in[18]:4 0.0001580164
5 chanx_left_in[18]:5 0.0001580164
6 chanx_left_in[18]:6 0.0001094403
7 chanx_left_in[18]:7 0.0001323534
8 chanx_left_in[18]:8 0.0004474539
9 chanx_left_in[18]:9 0.0004474695
10 chanx_left_in[18]:10 0.002116551
11 chanx_left_in[18]:11 0.002093622
12 chanx_left_in[18]:12 0.00238848
13 chanx_left_in[18]:13 0.00238848
14 chanx_left_in[18]:14 0.0008785975
15 chanx_left_in[18]:15 0.0009337725
16 chanx_left_in[18]:16 0.0004194601
17 chanx_left_in[18] chanx_left_in[14] 0.0003160884
18 chanx_left_in[18]:14 chanx_left_in[14]:11 0.001253014
19 chanx_left_in[18]:16 chanx_left_in[14]:11 0.0003160884
20 chanx_left_in[18]:15 chanx_left_in[14] 0.001253014
21 chanx_left_in[18] chanx_left_in[17] 0.0002977766
22 chanx_left_in[18]:16 chanx_left_in[17]:10 0.0002977766
23 chanx_left_in[18]:14 chanx_right_in[19]:15 0.0004754361
24 chanx_left_in[18]:15 chanx_right_in[19]:14 0.0004754361
25 chanx_left_in[18]:2 ropt_net_226:5 9.860038e-05
26 chanx_left_in[18]:3 ropt_net_226:4 9.860038e-05

*RES
0 chanx_left_in[18] chanx_left_in[18]:16 0.002113433
1 chanx_left_in[18]:2 ropt_mt_inst_767:A 0.152
2 chanx_left_in[18]:3 chanx_left_in[18]:2 0.002801339
3 chanx_left_in[18]:4 chanx_left_in[18]:3 0.0045
4 chanx_left_in[18]:6 chanx_left_in[18]:5 0.0045
5 chanx_left_in[18]:5 chanx_left_in[18]:4 0.002348214
6 chanx_left_in[18]:11 chanx_left_in[18]:10 0.03774554
7 chanx_left_in[18]:12 chanx_left_in[18]:11 0.0045
8 chanx_left_in[18]:13 chanx_left_in[18]:12 0.04301563
9 chanx_left_in[18]:14 chanx_left_in[18]:13 0.00341
10 chanx_left_in[18]:10 chanx_left_in[18]:9 0.0003035715
11 chanx_left_in[18]:9 chanx_left_in[18]:8 0.00575
12 chanx_left_in[18]:8 chanx_left_in[18]:7 0.0003035715
13 chanx_left_in[18]:7 chanx_left_in[18]:6 0.001602679
14 chanx_left_in[18]:16 chanx_left_in[18]:15 0.0001065333
15 chanx_left_in[18]:15 chanx_left_in[18]:14 0.004899358

*END

*D_NET chanx_left_in[19] 0.01598576 //LENGTH 134.785 LUMPCC 0.001937917 DR

*CONN
*P chanx_left_in[19] I *L 0.29796 *C 1.298 19.040
*I ropt_mt_inst_784:A I *L 0.001767 *C 97.825 55.760
*N chanx_left_in[19]:2 *C 97.788 55.760
*N chanx_left_in[19]:3 *C 92.965 55.760
*N chanx_left_in[19]:4 *C 92.920 55.715
*N chanx_left_in[19]:5 *C 92.920 21.125
*N chanx_left_in[19]:6 *C 92.875 21.080
*N chanx_left_in[19]:7 *C 51.220 21.080
*N chanx_left_in[19]:8 *C 1.425 21.080
*N chanx_left_in[19]:9 *C 1.380 21.035
*N chanx_left_in[19]:10 *C 1.380 19.098
*N chanx_left_in[19]:11 *C 1.380 19.040

*CAP
0 chanx_left_in[19] 3.926969e-05
1 ropt_mt_inst_784:A 1e-06
2 chanx_left_in[19]:2 0.000283164
3 chanx_left_in[19]:3 0.000283164
4 chanx_left_in[19]:4 0.001468373
5 chanx_left_in[19]:5 0.001468373
6 chanx_left_in[19]:6 0.002371755
7 chanx_left_in[19]:7 0.005109584
8 chanx_left_in[19]:8 0.002737829
9 chanx_left_in[19]:9 0.0001230269
10 chanx_left_in[19]:10 0.0001230269
11 chanx_left_in[19]:11 3.926969e-05
12 chanx_left_in[19]:4 chanx_left_in[0]:6 0.0003119061
13 chanx_left_in[19]:5 chanx_left_in[0]:5 0.0003119061
14 chanx_left_in[19]:6 chanx_left_in[10]:7 0.0002668239
15 chanx_left_in[19]:6 chanx_left_in[10]:9 1.378253e-05
16 chanx_left_in[19]:7 chanx_left_in[10]:8 1.378253e-05
17 chanx_left_in[19]:7 chanx_left_in[10]:9 0.0002668239
18 chanx_left_in[19]:8 chanx_right_in[15]:5 0.0003141089
19 chanx_left_in[19]:7 chanx_right_in[15]:6 0.0003141089
20 chanx_left_in[19]:6 mux_bottom_ipin_0/sky130_fd_sc_hd__mux2_1_2_X[0]:3 6.233707e-05
21 chanx_left_in[19]:7 mux_bottom_ipin_0/sky130_fd_sc_hd__mux2_1_2_X[0]:2 6.233707e-05

*RES
0 chanx_left_in[19] chanx_left_in[19]:11 2.35e-05
1 chanx_left_in[19]:2 ropt_mt_inst_784:A 0.152
2 chanx_left_in[19]:3 chanx_left_in[19]:2 0.004305804
3 chanx_left_in[19]:4 chanx_left_in[19]:3 0.0045
4 chanx_left_in[19]:6 chanx_left_in[19]:5 0.0045
5 chanx_left_in[19]:5 chanx_left_in[19]:4 0.03088393
6 chanx_left_in[19]:8 chanx_left_in[19]:7 0.04445983
7 chanx_left_in[19]:9 chanx_left_in[19]:8 0.0045
8 chanx_left_in[19]:10 chanx_left_in[19]:9 0.001729911
9 chanx_left_in[19]:11 chanx_left_in[19]:10 0.00341
10 chanx_left_in[19]:7 chanx_left_in[19]:6 0.03719197

*END
