*SPEF "1481-1998"
*DESIGN "cby_0__1_"
*DATE "Mon Oct 26 23:03:32 2020"
*
*
*
*
*DIVIDER /
*DELIMITER :
*T_UNIT 1 NS
*C_UNIT 1 PF
*R_UNIT 1 KOHM
*L_UNIT 1 HENRY

// XY_UNIT 1 UM
// PARASITIC_TECH nominal at 25.000 degree

*PORTS
prog_clk[0] I *C 0.690 3.400
chany_bottom_in[0] I *C 42.780 0.680
chany_bottom_in[1] I *C 25.760 0.680
chany_bottom_in[2] I *C 71.300 0.680
chany_bottom_in[3] I *C 49.220 0.680
chany_bottom_in[4] I *C 36.340 0.680
chany_bottom_in[5] I *C 44.620 0.680
chany_bottom_in[6] I *C 5.520 0.680
chany_bottom_in[7] I *C 69.000 0.680
chany_bottom_in[8] I *C 22.080 0.680
chany_bottom_in[9] I *C 9.200 0.680
chany_bottom_in[10] I *C 46.460 0.680
chany_bottom_in[11] I *C 51.060 0.680
chany_bottom_in[12] I *C 7.360 0.680
chany_bottom_in[13] I *C 23.920 0.680
chany_bottom_in[14] I *C 7.360 0.680
chany_bottom_in[15] I *C 46.000 0.680
chany_bottom_in[16] I *C 48.300 0.680
chany_bottom_in[17] I *C 52.900 0.680
chany_bottom_in[18] I *C 47.840 0.680
chany_bottom_in[19] I *C 25.760 0.680
chany_top_in[0] I *C 50.140 108.120
chany_top_in[1] I *C 34.500 108.120
chany_top_in[2] I *C 66.700 108.120
chany_top_in[3] I *C 44.620 108.120
chany_top_in[4] I *C 51.060 108.120
chany_top_in[5] I *C 45.540 108.120
chany_top_in[6] I *C 70.380 108.120
chany_top_in[7] I *C 68.540 108.120
chany_top_in[8] I *C 69.460 108.120
chany_top_in[9] I *C 25.760 108.120
chany_top_in[10] I *C 42.780 108.120
chany_top_in[11] I *C 48.300 108.120
chany_top_in[12] I *C 67.620 108.120
chany_top_in[13] I *C 49.680 108.120
chany_top_in[14] I *C 46.000 108.120
chany_top_in[15] I *C 47.840 108.120
chany_top_in[16] I *C 28.520 108.120
chany_top_in[17] I *C 47.380 108.120
chany_top_in[18] I *C 23.920 108.120
chany_top_in[19] I *C 25.760 108.120
ccff_head[0] I *C 54.280 108.120
chany_bottom_out[0] O *C 67.620 0.680
chany_bottom_out[1] O *C 62.100 0.680
chany_bottom_out[2] O *C 70.380 0.680
chany_bottom_out[3] O *C 45.540 0.680
chany_bottom_out[4] O *C 43.700 0.680
chany_bottom_out[5] O *C 28.980 0.680
chany_bottom_out[6] O *C 69.460 0.680
chany_bottom_out[7] O *C 68.540 0.680
chany_bottom_out[8] O *C 63.020 0.680
chany_bottom_out[9] O *C 51.980 0.680
chany_bottom_out[10] O *C 50.140 0.680
chany_bottom_out[11] O *C 41.860 0.680
chany_bottom_out[12] O *C 72.220 0.680
chany_bottom_out[13] O *C 20.240 0.680
chany_bottom_out[14] O *C 29.440 0.680
chany_bottom_out[15] O *C 49.680 0.680
chany_bottom_out[16] O *C 58.880 0.680
chany_bottom_out[17] O *C 14.720 0.680
chany_bottom_out[18] O *C 44.160 0.680
chany_bottom_out[19] O *C 47.380 0.680
chany_top_out[0] O *C 65.780 108.120
chany_top_out[1] O *C 14.720 108.120
chany_top_out[2] O *C 71.300 108.120
chany_top_out[3] O *C 13.800 108.120
chany_top_out[4] O *C 73.140 108.120
chany_top_out[5] O *C 49.220 108.120
chany_top_out[6] O *C 52.900 108.120
chany_top_out[7] O *C 22.080 108.120
chany_top_out[8] O *C 23.920 108.120
chany_top_out[9] O *C 23.000 108.120
chany_top_out[10] O *C 51.980 108.120
chany_top_out[11] O *C 30.820 108.120
chany_top_out[12] O *C 63.940 108.120
chany_top_out[13] O *C 72.220 108.120
chany_top_out[14] O *C 43.700 108.120
chany_top_out[15] O *C 46.460 108.120
chany_top_out[16] O *C 41.860 108.120
chany_top_out[17] O *C 29.900 108.120
chany_top_out[18] O *C 26.680 108.120
chany_top_out[19] O *C 24.840 108.120
right_grid_pin_52_[0] O *C 83.950 78.880
left_grid_pin_0_[0] O *C 0.690 99.280
ccff_tail[0] O *C 0.690 78.880
VDD I *C 42.320 54.400
VSS I *C 42.320 54.400

*D_NET chany_bottom_in[0] 0.01449549 //LENGTH 133.365 LUMPCC 0.002843307 DR

*CONN
*P chany_bottom_in[0] I *L 0.29796 *C 42.780 1.290
*I FTB_1__0:A I *L 0.001776 *C 64.400 99.280
*I mux_left_ipin_0\/mux_l1_in_0_:A1 I *L 0.00198 *C 69.825 79.900
*N chany_bottom_in[0]:3 *C 69.788 79.900
*N chany_bottom_in[0]:4 *C 69.460 79.900
*N chany_bottom_in[0]:5 *C 69.460 80.240
*N chany_bottom_in[0]:6 *C 64.362 99.280
*N chany_bottom_in[0]:7 *C 58.465 99.280
*N chany_bottom_in[0]:8 *C 58.420 99.235
*N chany_bottom_in[0]:9 *C 58.420 80.285
*N chany_bottom_in[0]:10 *C 58.420 80.240
*N chany_bottom_in[0]:11 *C 52.025 80.240
*N chany_bottom_in[0]:12 *C 51.980 80.195
*N chany_bottom_in[0]:13 *C 51.980 69.560
*N chany_bottom_in[0]:14 *C 51.980 19.765
*N chany_bottom_in[0]:15 *C 51.935 19.720
*N chany_bottom_in[0]:16 *C 42.825 19.720
*N chany_bottom_in[0]:17 *C 42.780 19.675

*CAP
0 chany_bottom_in[0] 0.0009039387
1 FTB_1__0:A 1e-06
2 mux_left_ipin_0\/mux_l1_in_0_:A1 1e-06
3 chany_bottom_in[0]:3 3.97468e-05
4 chany_bottom_in[0]:4 6.150243e-05
5 chany_bottom_in[0]:5 0.0004010938
6 chany_bottom_in[0]:6 0.0003087905
7 chany_bottom_in[0]:7 0.0003087905
8 chany_bottom_in[0]:8 0.0008434844
9 chany_bottom_in[0]:9 0.0008434844
10 chany_bottom_in[0]:10 0.0005935546
11 chany_bottom_in[0]:11 0.0001841928
12 chany_bottom_in[0]:12 0.0005932193
13 chany_bottom_in[0]:13 0.002538797
14 chany_bottom_in[0]:14 0.001945577
15 chany_bottom_in[0]:15 0.0005900338
16 chany_bottom_in[0]:16 0.0005900338
17 chany_bottom_in[0]:17 0.0009039387
18 chany_bottom_in[0]:10 chany_bottom_in[6]:6 0.0002514174
19 chany_bottom_in[0]:10 chany_bottom_in[6]:7 5.77896e-05
20 chany_bottom_in[0]:9 chany_bottom_in[6]:5 2.738933e-05
21 chany_bottom_in[0]:8 chany_bottom_in[6]:4 2.738933e-05
22 chany_bottom_in[0]:11 chany_bottom_in[6]:7 0.0002514174
23 chany_bottom_in[0]:5 chany_bottom_in[6]:6 5.77896e-05
24 chany_bottom_in[0]:10 chany_top_in[0]:16 4.402488e-05
25 chany_bottom_in[0]:10 chany_top_in[0]:17 0.0001909004
26 chany_bottom_in[0]:9 chany_top_in[0]:18 5.994789e-05
27 chany_bottom_in[0]:8 chany_top_in[0]:19 5.994789e-05
28 chany_bottom_in[0]:3 chany_top_in[0]:16 1.863092e-06
29 chany_bottom_in[0]:11 chany_top_in[0]:17 4.402488e-05
30 chany_bottom_in[0]:5 chany_top_in[0]:16 0.0001909004
31 chany_bottom_in[0]:5 chany_top_in[0]:15 5.84729e-06
32 chany_bottom_in[0]:4 chany_top_in[0]:14 5.84729e-06
33 chany_bottom_in[0]:4 chany_top_in[0]:17 1.863092e-06
34 chany_bottom_in[0]:14 chany_top_in[10]:12 0.0004361238
35 chany_bottom_in[0]:14 chany_top_in[10]:6 3.897219e-05
36 chany_bottom_in[0]:14 chany_top_in[10]:8 7.443227e-06
37 chany_bottom_in[0]:13 chany_top_in[10]:13 0.0004361238
38 chany_bottom_in[0]:13 chany_top_in[10]:9 7.443227e-06
39 chany_bottom_in[0]:13 chany_top_in[10]:7 3.897219e-05
40 chany_bottom_in[0]:10 mux_left_ipin_0/sky130_fd_sc_hd__mux2_1_0_X[0]:7 0.0001022356
41 chany_bottom_in[0]:5 mux_left_ipin_0/sky130_fd_sc_hd__mux2_1_0_X[0]:8 0.0001022356
42 chany_bottom_in[0]:7 ropt_net_177:4 9.689208e-05
43 chany_bottom_in[0]:6 ropt_net_177:3 9.689208e-05
44 chany_bottom_in[0] ropt_net_163:8 0.0001008069
45 chany_bottom_in[0]:17 ropt_net_163:9 0.0001008069

*RES
0 chany_bottom_in[0] chany_bottom_in[0]:17 0.01641518
1 chany_bottom_in[0]:10 chany_bottom_in[0]:9 0.0045
2 chany_bottom_in[0]:10 chany_bottom_in[0]:5 0.009857143
3 chany_bottom_in[0]:9 chany_bottom_in[0]:8 0.01691965
4 chany_bottom_in[0]:7 chany_bottom_in[0]:6 0.005265625
5 chany_bottom_in[0]:8 chany_bottom_in[0]:7 0.0045
6 chany_bottom_in[0]:6 FTB_1__0:A 0.152
7 chany_bottom_in[0]:3 mux_left_ipin_0\/mux_l1_in_0_:A1 0.152
8 chany_bottom_in[0]:11 chany_bottom_in[0]:10 0.005709821
9 chany_bottom_in[0]:12 chany_bottom_in[0]:11 0.0045
10 chany_bottom_in[0]:15 chany_bottom_in[0]:14 0.0045
11 chany_bottom_in[0]:14 chany_bottom_in[0]:13 0.04445983
12 chany_bottom_in[0]:16 chany_bottom_in[0]:15 0.008133928
13 chany_bottom_in[0]:17 chany_bottom_in[0]:16 0.0045
14 chany_bottom_in[0]:5 chany_bottom_in[0]:4 0.0003035715
15 chany_bottom_in[0]:4 chany_bottom_in[0]:3 0.0002924107
16 chany_bottom_in[0]:13 chany_bottom_in[0]:12 0.009495536

*END

*D_NET ropt_net_167 0.001244204 //LENGTH 11.620 LUMPCC 0.0002221075 DR

*CONN
*I BUFT_RR_64:X O *L 0 *C 64.860 20.060
*I ropt_mt_inst_771:A I *L 0.001766 *C 62.100 12.240
*N ropt_net_167:2 *C 62.138 12.240
*N ropt_net_167:3 *C 62.975 12.240
*N ropt_net_167:4 *C 63.020 12.285
*N ropt_net_167:5 *C 63.020 19.675
*N ropt_net_167:6 *C 63.065 19.720
*N ropt_net_167:7 *C 64.860 19.720
*N ropt_net_167:8 *C 64.860 20.060

*CAP
0 BUFT_RR_64:X 1e-06
1 ropt_mt_inst_771:A 1e-06
2 ropt_net_167:2 6.502365e-05
3 ropt_net_167:3 6.502365e-05
4 ropt_net_167:4 0.000274132
5 ropt_net_167:5 0.000274132
6 ropt_net_167:6 0.0001295785
7 ropt_net_167:7 0.0001568138
8 ropt_net_167:8 5.539253e-05
9 ropt_net_167:5 chany_bottom_in[7]:7 0.0001110537
10 ropt_net_167:4 chany_bottom_in[7]:8 0.0001110537

*RES
0 BUFT_RR_64:X ropt_net_167:8 0.152
1 ropt_net_167:8 ropt_net_167:7 0.0003035715
2 ropt_net_167:6 ropt_net_167:5 0.0045
3 ropt_net_167:5 ropt_net_167:4 0.006598215
4 ropt_net_167:3 ropt_net_167:2 0.0007477679
5 ropt_net_167:4 ropt_net_167:3 0.0045
6 ropt_net_167:2 ropt_mt_inst_771:A 0.152
7 ropt_net_167:7 ropt_net_167:6 0.001602679

*END

*D_NET chany_top_out[2] 0.0007854449 //LENGTH 5.595 LUMPCC 0.0001124834 DR

*CONN
*I ropt_mt_inst_810:X O *L 0 *C 71.760 104.040
*P chany_top_out[2] O *L 0.7423 *C 71.300 107.510
*N chany_top_out[2]:2 *C 71.300 106.760
*N chany_top_out[2]:3 *C 70.840 106.760
*N chany_top_out[2]:4 *C 70.840 104.085
*N chany_top_out[2]:5 *C 70.885 104.040
*N chany_top_out[2]:6 *C 71.722 104.040

*CAP
0 ropt_mt_inst_810:X 1e-06
1 chany_top_out[2] 5.990083e-05
2 chany_top_out[2]:2 8.423437e-05
3 chany_top_out[2]:3 0.0001907263
4 chany_top_out[2]:4 0.0001663928
5 chany_top_out[2]:5 8.535363e-05
6 chany_top_out[2]:6 8.535363e-05
7 chany_top_out[2]:6 ropt_net_207:3 3.022021e-06
8 chany_top_out[2]:6 ropt_net_207:5 2.810356e-06
9 chany_top_out[2]:6 ropt_net_207:6 7.070533e-07
10 chany_top_out[2]:5 ropt_net_207:2 3.022021e-06
11 chany_top_out[2]:5 ropt_net_207:4 2.810356e-06
12 chany_top_out[2]:5 ropt_net_207:7 7.070533e-07
13 chany_top_out[2]:4 ropt_net_207:9 4.381548e-05
14 chany_top_out[2]:3 ropt_net_207:2 5.886763e-06
15 chany_top_out[2]:3 ropt_net_207:8 4.381548e-05
16 chany_top_out[2]:2 ropt_net_207:3 5.886763e-06

*RES
0 ropt_mt_inst_810:X chany_top_out[2]:6 0.152
1 chany_top_out[2]:6 chany_top_out[2]:5 0.0007477679
2 chany_top_out[2]:5 chany_top_out[2]:4 0.0045
3 chany_top_out[2]:4 chany_top_out[2]:3 0.002388393
4 chany_top_out[2]:3 chany_top_out[2]:2 0.0004107143
5 chany_top_out[2]:2 chany_top_out[2] 0.0006696429

*END

*D_NET chany_bottom_out[1] 0.0008851824 //LENGTH 8.350 LUMPCC 0 DR

*CONN
*I ropt_mt_inst_822:X O *L 0 *C 66.895 3.740
*P chany_bottom_out[1] O *L 0.7423 *C 62.100 1.290
*N chany_bottom_out[1]:2 *C 62.100 1.655
*N chany_bottom_out[1]:3 *C 62.145 1.700
*N chany_bottom_out[1]:4 *C 66.195 1.700
*N chany_bottom_out[1]:5 *C 66.240 1.745
*N chany_bottom_out[1]:6 *C 66.240 3.695
*N chany_bottom_out[1]:7 *C 66.285 3.740
*N chany_bottom_out[1]:8 *C 66.858 3.740

*CAP
0 ropt_mt_inst_822:X 1e-06
1 chany_bottom_out[1] 3.449145e-05
2 chany_bottom_out[1]:2 3.449145e-05
3 chany_bottom_out[1]:3 0.000236368
4 chany_bottom_out[1]:4 0.000236368
5 chany_bottom_out[1]:5 0.0001171378
6 chany_bottom_out[1]:6 0.0001171378
7 chany_bottom_out[1]:7 5.409398e-05
8 chany_bottom_out[1]:8 5.409398e-05

*RES
0 ropt_mt_inst_822:X chany_bottom_out[1]:8 0.152
1 chany_bottom_out[1]:8 chany_bottom_out[1]:7 0.0005111608
2 chany_bottom_out[1]:7 chany_bottom_out[1]:6 0.0045
3 chany_bottom_out[1]:6 chany_bottom_out[1]:5 0.001741072
4 chany_bottom_out[1]:4 chany_bottom_out[1]:3 0.003616072
5 chany_bottom_out[1]:5 chany_bottom_out[1]:4 0.0045
6 chany_bottom_out[1]:3 chany_bottom_out[1]:2 0.0045
7 chany_bottom_out[1]:2 chany_bottom_out[1] 0.0003258929

*END

*D_NET chany_bottom_in[1] 0.01122471 //LENGTH 112.425 LUMPCC 0.001083668 DR

*CONN
*P chany_bottom_in[1] I *L 0.29796 *C 25.760 1.290
*I BUFT_P_116:A I *L 0.001776 *C 17.940 96.560
*I mux_right_ipin_0\/mux_l1_in_0_:A1 I *L 0.00198 *C 31.645 58.140
*N chany_bottom_in[1]:3 *C 31.608 58.140
*N chany_bottom_in[1]:4 *C 17.977 96.560
*N chany_bottom_in[1]:5 *C 19.735 96.560
*N chany_bottom_in[1]:6 *C 19.780 96.515
*N chany_bottom_in[1]:7 *C 19.780 58.185
*N chany_bottom_in[1]:8 *C 19.825 58.140
*N chany_bottom_in[1]:9 *C 27.140 58.140
*N chany_bottom_in[1]:10 *C 27.140 58.095
*N chany_bottom_in[1]:11 *C 27.140 44.880
*N chany_bottom_in[1]:12 *C 26.680 44.880
*N chany_bottom_in[1]:13 *C 26.680 2.778
*N chany_bottom_in[1]:14 *C 26.673 2.720
*N chany_bottom_in[1]:15 *C 25.768 2.720
*N chany_bottom_in[1]:16 *C 25.760 2.663

*CAP
0 chany_bottom_in[1] 8.104764e-05
1 BUFT_P_116:A 1e-06
2 mux_right_ipin_0\/mux_l1_in_0_:A1 1e-06
3 chany_bottom_in[1]:3 0.0003027257
4 chany_bottom_in[1]:4 0.0001244611
5 chany_bottom_in[1]:5 0.0001244611
6 chany_bottom_in[1]:6 0.001664385
7 chany_bottom_in[1]:7 0.001664385
8 chany_bottom_in[1]:8 0.0003889584
9 chany_bottom_in[1]:9 0.0007212278
10 chany_bottom_in[1]:10 0.0006417294
11 chany_bottom_in[1]:11 0.0006709353
12 chany_bottom_in[1]:12 0.001747727
13 chany_bottom_in[1]:13 0.001718521
14 chany_bottom_in[1]:14 0.0001037136
15 chany_bottom_in[1]:15 0.0001037136
16 chany_bottom_in[1]:16 8.104764e-05
17 chany_bottom_in[1]:10 chany_bottom_in[19]:7 2.560991e-05
18 chany_bottom_in[1]:13 chany_bottom_in[19] 6.510356e-06
19 chany_bottom_in[1]:13 chany_bottom_in[19]:8 0.0002554356
20 chany_bottom_in[1]:14 chany_bottom_in[19]:10 1.702142e-06
21 chany_bottom_in[1]:15 chany_bottom_in[19]:9 1.702142e-06
22 chany_bottom_in[1]:12 chany_bottom_in[19]:11 6.510356e-06
23 chany_bottom_in[1]:12 chany_bottom_in[19]:7 0.0002554356
24 chany_bottom_in[1]:11 chany_bottom_in[19]:8 2.560991e-05
25 chany_bottom_in[1]:7 mux_tree_tapbuf_size10_1_sram[1]:16 6.771629e-05
26 chany_bottom_in[1]:7 mux_tree_tapbuf_size10_1_sram[1]:13 0.0001620508
27 chany_bottom_in[1]:7 mux_tree_tapbuf_size10_1_sram[1]:8 2.280901e-05
28 chany_bottom_in[1]:6 mux_tree_tapbuf_size10_1_sram[1]:16 0.0001620508
29 chany_bottom_in[1]:6 mux_tree_tapbuf_size10_1_sram[1]:17 6.771629e-05
30 chany_bottom_in[1]:6 mux_tree_tapbuf_size10_1_sram[1]:9 2.280901e-05

*RES
0 chany_bottom_in[1] chany_bottom_in[1]:16 0.001225446
1 chany_bottom_in[1]:9 chany_bottom_in[1]:8 0.00653125
2 chany_bottom_in[1]:9 chany_bottom_in[1]:3 0.00398884
3 chany_bottom_in[1]:10 chany_bottom_in[1]:9 0.0045
4 chany_bottom_in[1]:13 chany_bottom_in[1]:12 0.03759152
5 chany_bottom_in[1]:14 chany_bottom_in[1]:13 0.00341
6 chany_bottom_in[1]:16 chany_bottom_in[1]:15 0.00341
7 chany_bottom_in[1]:15 chany_bottom_in[1]:14 0.0001417833
8 chany_bottom_in[1]:8 chany_bottom_in[1]:7 0.0045
9 chany_bottom_in[1]:7 chany_bottom_in[1]:6 0.03422322
10 chany_bottom_in[1]:5 chany_bottom_in[1]:4 0.001569197
11 chany_bottom_in[1]:6 chany_bottom_in[1]:5 0.0045
12 chany_bottom_in[1]:4 BUFT_P_116:A 0.152
13 chany_bottom_in[1]:3 mux_right_ipin_0\/mux_l1_in_0_:A1 0.152
14 chany_bottom_in[1]:12 chany_bottom_in[1]:11 0.0004107143
15 chany_bottom_in[1]:11 chany_bottom_in[1]:10 0.01179911

*END

*D_NET chany_bottom_in[2] 0.01180927 //LENGTH 110.645 LUMPCC 0.003053969 DR

*CONN
*P chany_bottom_in[2] I *L 0.29796 *C 71.300 1.290
*I mux_left_ipin_0\/mux_l1_in_1_:A1 I *L 0.00198 *C 67.985 85.340
*I BUFT_P_107:A I *L 0.001776 *C 75.440 99.280
*N chany_bottom_in[2]:3 *C 75.403 99.280
*N chany_bottom_in[2]:4 *C 73.645 99.280
*N chany_bottom_in[2]:5 *C 73.600 99.235
*N chany_bottom_in[2]:6 *C 73.600 85.045
*N chany_bottom_in[2]:7 *C 73.555 85.000
*N chany_bottom_in[2]:8 *C 67.948 85.340
*N chany_bottom_in[2]:9 *C 66.240 85.340
*N chany_bottom_in[2]:10 *C 66.240 85.000
*N chany_bottom_in[2]:11 *C 71.300 85.000
*N chany_bottom_in[2]:12 *C 71.300 84.955
*N chany_bottom_in[2]:13 *C 71.300 51.290

*CAP
0 chany_bottom_in[2] 0.001882199
1 mux_left_ipin_0\/mux_l1_in_1_:A1 1e-06
2 BUFT_P_107:A 1e-06
3 chany_bottom_in[2]:3 0.0001318713
4 chany_bottom_in[2]:4 0.0001318713
5 chany_bottom_in[2]:5 0.0006492546
6 chany_bottom_in[2]:6 0.0006492546
7 chany_bottom_in[2]:7 0.0001378908
8 chany_bottom_in[2]:8 0.0001025681
9 chany_bottom_in[2]:9 0.0001263038
10 chany_bottom_in[2]:10 0.0002730759
11 chany_bottom_in[2]:11 0.000421986
12 chany_bottom_in[2]:12 0.001182416
13 chany_bottom_in[2]:13 0.003064615
14 chany_bottom_in[2] chany_top_in[6]:4 0.0004070714
15 chany_bottom_in[2]:6 chany_top_in[6]:5 1.72111e-05
16 chany_bottom_in[2]:5 chany_top_in[6] 1.72111e-05
17 chany_bottom_in[2]:12 chany_top_in[6] 0.0001602861
18 chany_bottom_in[2]:12 chany_top_in[6]:5 0.0003115369
19 chany_bottom_in[2]:13 chany_top_in[6]:4 0.0003115369
20 chany_bottom_in[2]:13 chany_top_in[6]:5 0.0005673575
21 chany_bottom_in[2] chany_top_in[12]:6 0.0002684109
22 chany_bottom_in[2]:13 chany_top_in[12]:7 0.0002684109
23 chany_bottom_in[2]:7 mux_tree_tapbuf_size10_0_sram[0]:12 1.613165e-05
24 chany_bottom_in[2]:6 mux_tree_tapbuf_size10_0_sram[0]:10 9.670461e-06
25 chany_bottom_in[2]:5 mux_tree_tapbuf_size10_0_sram[0]:11 9.670461e-06
26 chany_bottom_in[2]:11 mux_tree_tapbuf_size10_0_sram[0]:12 4.359376e-05
27 chany_bottom_in[2]:11 mux_tree_tapbuf_size10_0_sram[0]:13 2.420568e-05
28 chany_bottom_in[2]:12 mux_tree_tapbuf_size10_0_sram[0]:11 6.385954e-05
29 chany_bottom_in[2]:12 mux_tree_tapbuf_size10_0_sram[0]:10 8.703356e-05
30 chany_bottom_in[2]:8 mux_tree_tapbuf_size10_0_sram[0]:12 2.97311e-05
31 chany_bottom_in[2]:8 mux_tree_tapbuf_size10_0_sram[0]:13 3.554147e-05
32 chany_bottom_in[2]:10 mux_tree_tapbuf_size10_0_sram[0]:14 8.074028e-06
33 chany_bottom_in[2]:10 mux_tree_tapbuf_size10_0_sram[0]:13 4.359376e-05
34 chany_bottom_in[2]:9 mux_tree_tapbuf_size10_0_sram[0]:14 3.554147e-05
35 chany_bottom_in[2]:9 mux_tree_tapbuf_size10_0_sram[0]:13 2.97311e-05
36 chany_bottom_in[2]:13 mux_tree_tapbuf_size10_0_sram[0]:7 8.703356e-05
37 chany_bottom_in[2]:13 mux_tree_tapbuf_size10_0_sram[0]:10 6.385954e-05
38 chany_bottom_in[2] ropt_net_164:4 6.883237e-05
39 chany_bottom_in[2]:13 ropt_net_164:5 6.883237e-05

*RES
0 chany_bottom_in[2] chany_bottom_in[2]:13 0.04464286
1 chany_bottom_in[2]:7 chany_bottom_in[2]:6 0.0045
2 chany_bottom_in[2]:6 chany_bottom_in[2]:5 0.01266964
3 chany_bottom_in[2]:4 chany_bottom_in[2]:3 0.001569197
4 chany_bottom_in[2]:5 chany_bottom_in[2]:4 0.0045
5 chany_bottom_in[2]:3 BUFT_P_107:A 0.152
6 chany_bottom_in[2]:11 chany_bottom_in[2]:10 0.004517857
7 chany_bottom_in[2]:11 chany_bottom_in[2]:7 0.002013393
8 chany_bottom_in[2]:12 chany_bottom_in[2]:11 0.0045
9 chany_bottom_in[2]:8 mux_left_ipin_0\/mux_l1_in_1_:A1 0.152
10 chany_bottom_in[2]:10 chany_bottom_in[2]:9 0.0003035714
11 chany_bottom_in[2]:9 chany_bottom_in[2]:8 0.001524554
12 chany_bottom_in[2]:13 chany_bottom_in[2]:12 0.03005804

*END

*D_NET chany_bottom_in[17] 0.01416919 //LENGTH 133.025 LUMPCC 0.002531999 DR

*CONN
*P chany_bottom_in[17] I *L 0.29796 *C 52.900 1.325
*I mux_right_ipin_0\/mux_l2_in_2_:A0 I *L 0.001631 *C 28.350 80.580
*I FTB_18__17:A I *L 0.001776 *C 34.040 99.280
*N chany_bottom_in[17]:3 *C 34.040 99.280
*N chany_bottom_in[17]:4 *C 34.040 99.960
*N chany_bottom_in[17]:5 *C 28.105 99.960
*N chany_bottom_in[17]:6 *C 28.060 99.915
*N chany_bottom_in[17]:7 *C 28.060 80.625
*N chany_bottom_in[17]:8 *C 28.060 80.580
*N chany_bottom_in[17]:9 *C 28.388 80.580
*N chany_bottom_in[17]:10 *C 28.935 80.580
*N chany_bottom_in[17]:11 *C 28.980 80.535
*N chany_bottom_in[17]:12 *C 28.980 77.578
*N chany_bottom_in[17]:13 *C 28.988 77.520
*N chany_bottom_in[17]:14 *C 38.620 77.520
*N chany_bottom_in[17]:15 *C 38.640 77.513
*N chany_bottom_in[17]:16 *C 38.640 53.915
*N chany_bottom_in[17]:17 *C 38.640 4.088
*N chany_bottom_in[17]:18 *C 38.660 4.080
*N chany_bottom_in[17]:19 *C 51.973 4.080
*N chany_bottom_in[17]:20 *C 51.980 4.022
*N chany_bottom_in[17]:21 *C 51.980 3.400
*N chany_bottom_in[17]:22 *C 52.900 3.400

*CAP
0 chany_bottom_in[17] 0.0001162239
1 mux_right_ipin_0\/mux_l2_in_2_:A0 1e-06
2 FTB_18__17:A 1e-06
3 chany_bottom_in[17]:3 7.20316e-05
4 chany_bottom_in[17]:4 0.000335442
5 chany_bottom_in[17]:5 0.0002911099
6 chany_bottom_in[17]:6 0.001088152
7 chany_bottom_in[17]:7 0.001088152
8 chany_bottom_in[17]:8 5.458801e-05
9 chany_bottom_in[17]:9 7.749935e-05
10 chany_bottom_in[17]:10 5.749194e-05
11 chany_bottom_in[17]:11 0.0002102341
12 chany_bottom_in[17]:12 0.0002102341
13 chany_bottom_in[17]:13 0.0005077779
14 chany_bottom_in[17]:14 0.0005077779
15 chany_bottom_in[17]:15 0.0008074864
16 chany_bottom_in[17]:16 0.002376532
17 chany_bottom_in[17]:17 0.001569046
18 chany_bottom_in[17]:18 0.000973835
19 chany_bottom_in[17]:19 0.000973835
20 chany_bottom_in[17]:20 4.942229e-05
21 chany_bottom_in[17]:21 0.0001007613
22 chany_bottom_in[17]:22 0.0001675629
23 chany_bottom_in[17]:13 chany_bottom_in[4]:19 1.078086e-05
24 chany_bottom_in[17]:14 chany_bottom_in[4]:18 1.078086e-05
25 chany_bottom_in[17]:15 chany_bottom_in[4]:20 0.000289448
26 chany_bottom_in[17]:17 chany_bottom_in[4]:21 1.148697e-05
27 chany_bottom_in[17]:17 chany_bottom_in[4]:22 0.0007610692
28 chany_bottom_in[17]:16 chany_bottom_in[4]:20 1.148697e-05
29 chany_bottom_in[17]:16 chany_bottom_in[4]:21 0.001050517
30 chany_bottom_in[17]:5 ropt_net_200:3 0.0001932144
31 chany_bottom_in[17]:4 ropt_net_200:4 0.0001932144

*RES
0 chany_bottom_in[17] chany_bottom_in[17]:22 0.001852679
1 chany_bottom_in[17]:3 FTB_18__17:A 0.152
2 chany_bottom_in[17]:5 chany_bottom_in[17]:4 0.005299107
3 chany_bottom_in[17]:6 chany_bottom_in[17]:5 0.0045
4 chany_bottom_in[17]:8 chany_bottom_in[17]:7 0.0045
5 chany_bottom_in[17]:7 chany_bottom_in[17]:6 0.01722322
6 chany_bottom_in[17]:10 chany_bottom_in[17]:9 0.0004888393
7 chany_bottom_in[17]:11 chany_bottom_in[17]:10 0.0045
8 chany_bottom_in[17]:12 chany_bottom_in[17]:11 0.002640625
9 chany_bottom_in[17]:13 chany_bottom_in[17]:12 0.00341
10 chany_bottom_in[17]:14 chany_bottom_in[17]:13 0.001509092
11 chany_bottom_in[17]:15 chany_bottom_in[17]:14 0.00341
12 chany_bottom_in[17]:18 chany_bottom_in[17]:17 0.00341
13 chany_bottom_in[17]:17 chany_bottom_in[17]:16 0.007806308
14 chany_bottom_in[17]:20 chany_bottom_in[17]:19 0.00341
15 chany_bottom_in[17]:19 chany_bottom_in[17]:18 0.002085625
16 chany_bottom_in[17]:9 mux_right_ipin_0\/mux_l2_in_2_:A0 0.152
17 chany_bottom_in[17]:9 chany_bottom_in[17]:8 0.0001779891
18 chany_bottom_in[17]:4 chany_bottom_in[17]:3 0.0006071429
19 chany_bottom_in[17]:21 chany_bottom_in[17]:20 0.0005558036
20 chany_bottom_in[17]:22 chany_bottom_in[17]:21 0.0008214285
21 chany_bottom_in[17]:16 chany_bottom_in[17]:15 0.003696942

*END

*D_NET chany_bottom_in[19] 0.01095336 //LENGTH 108.910 LUMPCC 0.001295027 DR

*CONN
*P chany_bottom_in[19] I *L 0.29796 *C 25.760 1.210
*I BUFT_RR_55:A I *L 0.001776 *C 18.860 102.000
*N chany_bottom_in[19]:2 *C 18.860 102.000
*N chany_bottom_in[19]:3 *C 18.860 102.000
*N chany_bottom_in[19]:4 *C 18.867 102.000
*N chany_bottom_in[19]:5 *C 24.832 102.000
*N chany_bottom_in[19]:6 *C 24.840 101.943
*N chany_bottom_in[19]:7 *C 24.840 54.575
*N chany_bottom_in[19]:8 *C 24.840 4.817
*N chany_bottom_in[19]:9 *C 24.848 4.760
*N chany_bottom_in[19]:10 *C 25.740 4.760
*N chany_bottom_in[19]:11 *C 25.760 4.753

*CAP
0 chany_bottom_in[19] 0.0002449867
1 BUFT_RR_55:A 1e-06
2 chany_bottom_in[19]:2 3.617771e-05
3 chany_bottom_in[19]:3 2.999749e-05
4 chany_bottom_in[19]:4 0.0003777122
5 chany_bottom_in[19]:5 0.0003777122
6 chany_bottom_in[19]:6 0.002092398
7 chany_bottom_in[19]:7 0.004094506
8 chany_bottom_in[19]:8 0.002002107
9 chany_bottom_in[19]:9 7.8374e-05
10 chany_bottom_in[19]:10 7.8374e-05
11 chany_bottom_in[19]:11 0.0002449867
12 chany_bottom_in[19] chany_bottom_in[1]:13 6.510356e-06
13 chany_bottom_in[19]:8 chany_bottom_in[1]:11 2.560991e-05
14 chany_bottom_in[19]:8 chany_bottom_in[1]:13 0.0002554356
15 chany_bottom_in[19]:9 chany_bottom_in[1]:15 1.702142e-06
16 chany_bottom_in[19]:10 chany_bottom_in[1]:14 1.702142e-06
17 chany_bottom_in[19]:11 chany_bottom_in[1]:12 6.510356e-06
18 chany_bottom_in[19]:7 chany_bottom_in[1]:10 2.560991e-05
19 chany_bottom_in[19]:7 chany_bottom_in[1]:12 0.0002554356
20 chany_bottom_in[19]:6 chany_bottom_in[6]:12 0.0002339852
21 chany_bottom_in[19]:8 chany_bottom_in[6]:13 1.063694e-05
22 chany_bottom_in[19]:8 chany_bottom_in[6]:17 2.752913e-05
23 chany_bottom_in[19]:7 chany_bottom_in[6]:12 1.063694e-05
24 chany_bottom_in[19]:7 chany_bottom_in[6]:13 0.0002339852
25 chany_bottom_in[19]:7 chany_bottom_in[6]:16 2.752913e-05
26 chany_bottom_in[19]:6 ropt_net_173:4 8.610429e-05
27 chany_bottom_in[19]:7 ropt_net_173:5 8.610429e-05

*RES
0 chany_bottom_in[19] chany_bottom_in[19]:11 0.0005549916
1 chany_bottom_in[19]:2 BUFT_RR_55:A 0.152
2 chany_bottom_in[19]:3 chany_bottom_in[19]:2 0.0045
3 chany_bottom_in[19]:4 chany_bottom_in[19]:3 0.00341
4 chany_bottom_in[19]:6 chany_bottom_in[19]:5 0.00341
5 chany_bottom_in[19]:5 chany_bottom_in[19]:4 0.0009345166
6 chany_bottom_in[19]:8 chany_bottom_in[19]:7 0.04442634
7 chany_bottom_in[19]:9 chany_bottom_in[19]:8 0.00341
8 chany_bottom_in[19]:10 chany_bottom_in[19]:9 0.000139825
9 chany_bottom_in[19]:11 chany_bottom_in[19]:10 0.00341
10 chany_bottom_in[19]:7 chany_bottom_in[19]:6 0.04229242

*END

*D_NET chany_top_in[1] 0.01485111 //LENGTH 133.190 LUMPCC 0.003069019 DR

*CONN
*P chany_top_in[1] I *L 0.29796 *C 34.500 107.510
*I mux_right_ipin_0\/mux_l1_in_0_:A0 I *L 0.001631 *C 32.030 58.820
*I ropt_mt_inst_760:A I *L 0.001767 *C 59.340 6.800
*N chany_top_in[1]:3 *C 59.303 6.800
*N chany_top_in[1]:4 *C 57.040 6.800
*N chany_top_in[1]:5 *C 57.040 7.140
*N chany_top_in[1]:6 *C 53.865 7.140
*N chany_top_in[1]:7 *C 53.820 7.185
*N chany_top_in[1]:8 *C 53.820 11.515
*N chany_top_in[1]:9 *C 53.775 11.560
*N chany_top_in[1]:10 *C 47.840 11.560
*N chany_top_in[1]:11 *C 47.840 12.240
*N chany_top_in[1]:12 *C 46.505 12.240
*N chany_top_in[1]:13 *C 46.460 12.285
*N chany_top_in[1]:14 *C 46.460 44.155
*N chany_top_in[1]:15 *C 46.415 44.200
*N chany_top_in[1]:16 *C 43.285 44.200
*N chany_top_in[1]:17 *C 43.240 44.200
*N chany_top_in[1]:18 *C 43.240 44.820
*N chany_top_in[1]:19 *C 43.240 44.865
*N chany_top_in[1]:20 *C 40.835 44.880
*N chany_top_in[1]:21 *C 38.225 44.880
*N chany_top_in[1]:22 *C 38.180 44.925
*N chany_top_in[1]:23 *C 38.180 58.775
*N chany_top_in[1]:24 *C 38.135 58.820
*N chany_top_in[1]:25 *C 32.068 58.820
*N chany_top_in[1]:26 *C 35.420 58.820
*N chany_top_in[1]:27 *C 35.420 58.865
*N chany_top_in[1]:28 *C 35.420 98.895
*N chany_top_in[1]:29 *C 35.375 98.940
*N chany_top_in[1]:30 *C 34.545 98.940
*N chany_top_in[1]:31 *C 34.500 98.985

*CAP
0 chany_top_in[1] 0.0004183496
1 mux_right_ipin_0\/mux_l1_in_0_:A0 1e-06
2 ropt_mt_inst_760:A 1e-06
3 chany_top_in[1]:3 0.0001207017
4 chany_top_in[1]:4 0.0001445938
5 chany_top_in[1]:5 0.0001915752
6 chany_top_in[1]:6 0.0001676832
7 chany_top_in[1]:7 0.0002438628
8 chany_top_in[1]:8 0.0002438628
9 chany_top_in[1]:9 0.0003859414
10 chany_top_in[1]:10 0.0004209031
11 chany_top_in[1]:11 0.0001261436
12 chany_top_in[1]:12 9.118186e-05
13 chany_top_in[1]:13 0.00100859
14 chany_top_in[1]:14 0.00100859
15 chany_top_in[1]:15 0.0002187051
16 chany_top_in[1]:16 0.0002187051
17 chany_top_in[1]:17 8.960445e-05
18 chany_top_in[1]:18 6.23336e-05
19 chany_top_in[1]:19 0.0001773484
20 chany_top_in[1]:20 0.0002953968
21 chany_top_in[1]:21 0.0001516637
22 chany_top_in[1]:22 0.0006983125
23 chany_top_in[1]:23 0.0006983125
24 chany_top_in[1]:24 0.0001676177
25 chany_top_in[1]:25 0.0001813741
26 chany_top_in[1]:26 0.000381768
27 chany_top_in[1]:27 0.001678051
28 chany_top_in[1]:28 0.001678051
29 chany_top_in[1]:29 4.626043e-05
30 chany_top_in[1]:30 4.626043e-05
31 chany_top_in[1]:31 0.0004183496
32 chany_top_in[1]:13 chany_top_in[4]:7 0.0003612386
33 chany_top_in[1]:14 chany_top_in[4]:8 0.0003612386
34 chany_top_in[1]:11 chany_top_in[4]:8 8.223255e-06
35 chany_top_in[1]:10 chany_top_in[4]:7 8.223255e-06
36 chany_top_in[1]:13 chany_top_in[15]:8 0.0002739003
37 chany_top_in[1]:14 chany_top_in[15]:9 0.0002739003
38 chany_top_in[1]:26 mux_tree_tapbuf_size10_1_sram[0]:7 8.118644e-05
39 chany_top_in[1]:27 mux_tree_tapbuf_size10_1_sram[0]:15 0.0001135641
40 chany_top_in[1]:27 mux_tree_tapbuf_size10_1_sram[0]:18 7.38688e-05
41 chany_top_in[1]:27 mux_tree_tapbuf_size10_1_sram[0]:11 0.0001782233
42 chany_top_in[1]:27 mux_tree_tapbuf_size10_1_sram[0]:8 3.78624e-05
43 chany_top_in[1]:28 mux_tree_tapbuf_size10_1_sram[0]:19 7.38688e-05
44 chany_top_in[1]:28 mux_tree_tapbuf_size10_1_sram[0]:12 0.0001782233
45 chany_top_in[1]:28 mux_tree_tapbuf_size10_1_sram[0]:18 0.0001135641
46 chany_top_in[1]:28 mux_tree_tapbuf_size10_1_sram[0]:11 3.78624e-05
47 chany_top_in[1]:25 mux_tree_tapbuf_size10_1_sram[0]:6 8.118644e-05
48 chany_top_in[1]:27 ropt_net_183:4 6.514995e-07
49 chany_top_in[1]:29 ropt_net_183:7 4.588169e-05
50 chany_top_in[1]:28 ropt_net_183:5 6.514995e-07
51 chany_top_in[1]:30 ropt_net_183:6 4.588169e-05
52 chany_top_in[1]:3 ropt_net_191:9 3.604051e-05
53 chany_top_in[1]:6 ropt_net_191:8 1.226267e-06
54 chany_top_in[1]:6 ropt_net_191:4 7.961701e-05
55 chany_top_in[1]:5 ropt_net_191:9 1.226267e-06
56 chany_top_in[1]:5 ropt_net_191:5 7.961701e-05
57 chany_top_in[1]:4 ropt_net_191:8 3.604051e-05
58 chany_top_in[1] ropt_net_202:4 9.093643e-05
59 chany_top_in[1]:27 ropt_net_202:5 1.082265e-05
60 chany_top_in[1]:28 ropt_net_202:4 1.082265e-05
61 chany_top_in[1]:31 ropt_net_202:5 9.093643e-05
62 chany_top_in[1]:13 ropt_net_165:4 0.0001412666
63 chany_top_in[1]:14 ropt_net_165:5 0.0001412666

*RES
0 chany_top_in[1] chany_top_in[1]:31 0.007611607
1 chany_top_in[1]:3 ropt_mt_inst_760:A 0.152
2 chany_top_in[1]:6 chany_top_in[1]:5 0.002834822
3 chany_top_in[1]:7 chany_top_in[1]:6 0.0045
4 chany_top_in[1]:9 chany_top_in[1]:8 0.0045
5 chany_top_in[1]:8 chany_top_in[1]:7 0.003866072
6 chany_top_in[1]:12 chany_top_in[1]:11 0.001191964
7 chany_top_in[1]:13 chany_top_in[1]:12 0.0045
8 chany_top_in[1]:15 chany_top_in[1]:14 0.0045
9 chany_top_in[1]:14 chany_top_in[1]:13 0.02845536
10 chany_top_in[1]:16 chany_top_in[1]:15 0.002794643
11 chany_top_in[1]:17 chany_top_in[1]:16 0.0045
12 chany_top_in[1]:26 chany_top_in[1]:25 0.002993304
13 chany_top_in[1]:26 chany_top_in[1]:24 0.002424107
14 chany_top_in[1]:27 chany_top_in[1]:26 0.0045
15 chany_top_in[1]:29 chany_top_in[1]:28 0.0045
16 chany_top_in[1]:28 chany_top_in[1]:27 0.03574108
17 chany_top_in[1]:30 chany_top_in[1]:29 0.0007410715
18 chany_top_in[1]:31 chany_top_in[1]:30 0.0045
19 chany_top_in[1]:19 chany_top_in[1]:18 0.0045
20 chany_top_in[1]:18 chany_top_in[1]:17 0.0005535714
21 chany_top_in[1]:21 chany_top_in[1]:20 0.002330357