*SPEF "1481-1998"
*DESIGN "cby_0__1_"
*DATE "Tue Oct 27 11:35:07 2020"
*
*
*
*
*DIVIDER /
*DELIMITER :
*T_UNIT 1 NS
*C_UNIT 1 PF
*R_UNIT 1 KOHM
*L_UNIT 1 HENRY

// XY_UNIT 1 UM
// PARASITIC_TECH nominal at 25.000 degree

*PORTS
prog_clk[0] I *C 0.690 3.400
chany_bottom_in[0] I *C 42.320 0.680
chany_bottom_in[1] I *C 46.920 0.680
chany_bottom_in[2] I *C 43.240 0.680
chany_bottom_in[3] I *C 51.520 0.680
chany_bottom_in[4] I *C 32.660 0.680
chany_bottom_in[5] I *C 54.280 0.680
chany_bottom_in[6] I *C 4.600 0.680
chany_bottom_in[7] I *C 49.680 0.680
chany_bottom_in[8] I *C 6.440 0.680
chany_bottom_in[9] I *C 8.280 0.680
chany_bottom_in[10] I *C 48.760 0.680
chany_bottom_in[11] I *C 52.440 0.680
chany_bottom_in[12] I *C 7.820 0.680
chany_bottom_in[13] I *C 23.920 0.680
chany_bottom_in[14] I *C 8.740 0.680
chany_bottom_in[15] I *C 31.280 0.680
chany_bottom_in[16] I *C 28.060 0.680
chany_bottom_in[17] I *C 44.160 0.680
chany_bottom_in[18] I *C 29.440 0.680
chany_bottom_in[19] I *C 27.600 0.680
chany_top_in[0] I *C 22.080 75.480
chany_top_in[1] I *C 44.160 75.480
chany_top_in[2] I *C 45.080 75.480
chany_top_in[3] I *C 54.280 75.480
chany_top_in[4] I *C 42.320 75.480
chany_top_in[5] I *C 53.360 75.480
chany_top_in[6] I *C 51.520 75.480
chany_top_in[7] I *C 47.840 75.480
chany_top_in[8] I *C 50.600 75.480
chany_top_in[9] I *C 29.900 75.480
chany_top_in[10] I *C 21.160 75.480
chany_top_in[11] I *C 46.920 75.480
chany_top_in[12] I *C 52.440 75.480
chany_top_in[13] I *C 48.760 75.480
chany_top_in[14] I *C 49.680 75.480
chany_top_in[15] I *C 28.980 75.480
chany_top_in[16] I *C 33.120 75.480
chany_top_in[17] I *C 24.840 75.480
chany_top_in[18] I *C 27.140 75.480
chany_top_in[19] I *C 28.060 75.480
ccff_head[0] I *C 32.200 75.480
chany_bottom_out[0] O *C 45.080 0.680
chany_bottom_out[1] O *C 46.000 0.680
chany_bottom_out[2] O *C 53.360 0.680
chany_bottom_out[3] O *C 31.740 0.680
chany_bottom_out[4] O *C 28.980 0.680
chany_bottom_out[5] O *C 33.580 0.680
chany_bottom_out[6] O *C 49.680 0.680
chany_bottom_out[7] O *C 50.600 0.680
chany_bottom_out[8] O *C 63.940 0.680
chany_bottom_out[9] O *C 56.120 0.680
chany_bottom_out[10] O *C 27.140 0.680
chany_bottom_out[11] O *C 30.820 0.680
chany_bottom_out[12] O *C 57.040 0.680
chany_bottom_out[13] O *C 33.120 0.680
chany_bottom_out[14] O *C 12.880 0.680
chany_bottom_out[15] O *C 47.840 0.680
chany_bottom_out[16] O *C 42.320 0.680
chany_bottom_out[17] O *C 14.720 0.680
chany_bottom_out[18] O *C 46.000 0.680
chany_bottom_out[19] O *C 47.840 0.680
chany_top_out[0] O *C 46.920 75.480
chany_top_out[1] O *C 16.560 75.480
chany_top_out[2] O *C 43.240 75.480
chany_top_out[3] O *C 14.720 75.480
chany_top_out[4] O *C 56.120 75.480
chany_top_out[5] O *C 46.000 75.480
chany_top_out[6] O *C 23.000 75.480
chany_top_out[7] O *C 27.600 75.480
chany_top_out[8] O *C 9.660 75.480
chany_top_out[9] O *C 20.240 75.480
chany_top_out[10] O *C 41.400 75.480
chany_top_out[11] O *C 38.640 75.480
chany_top_out[12] O *C 58.880 75.480
chany_top_out[13] O *C 57.960 75.480
chany_top_out[14] O *C 57.040 75.480
chany_top_out[15] O *C 23.920 75.480
chany_top_out[16] O *C 35.880 75.480
chany_top_out[17] O *C 34.960 75.480
chany_top_out[18] O *C 34.040 75.480
chany_top_out[19] O *C 30.820 75.480
right_grid_pin_52_[0] O *C 65.550 40.800
left_grid_pin_0_[0] O *C 0.690 62.560
ccff_tail[0] O *C 0.690 40.800
VDD I *C 33.120 38.080
VSS I *C 33.120 38.080

*D_NET chany_bottom_in[0] 0.009747079 //LENGTH 80.895 LUMPCC 0.002015163 DR

*CONN
*P chany_bottom_in[0] I *L 0.29796 *C 42.320 1.290
*I mux_left_ipin_0\/mux_l1_in_0_:A1 I *L 0.00198 *C 44.985 36.380
*I FTB_1__0:A I *L 0.001767 *C 48.760 69.360
*N chany_bottom_in[0]:3 *C 41.610 16.320
*N chany_bottom_in[0]:4 *C 47.130 67.320
*N chany_bottom_in[0]:5 *C 48.723 69.360
*N chany_bottom_in[0]:6 *C 47.885 69.360
*N chany_bottom_in[0]:7 *C 47.840 69.315
*N chany_bottom_in[0]:8 *C 47.840 67.377
*N chany_bottom_in[0]:9 *C 47.838 67.320
*N chany_bottom_in[0]:10 *C 47.840 67.312
*N chany_bottom_in[0]:11 *C 47.840 54.408
*N chany_bottom_in[0]:12 *C 47.820 54.400
*N chany_bottom_in[0]:13 *C 44.168 54.400
*N chany_bottom_in[0]:14 *C 44.160 54.343
*N chany_bottom_in[0]:15 *C 44.948 36.380
*N chany_bottom_in[0]:16 *C 44.620 36.380
*N chany_bottom_in[0]:17 *C 44.620 36.040
*N chany_bottom_in[0]:18 *C 44.205 36.040
*N chany_bottom_in[0]:19 *C 44.160 36.040
*N chany_bottom_in[0]:20 *C 44.160 34.738
*N chany_bottom_in[0]:21 *C 44.153 34.680
*N chany_bottom_in[0]:22 *C 42.340 34.680
*N chany_bottom_in[0]:23 *C 42.320 34.672
*N chany_bottom_in[0]:24 *C 42.320 16.328
*N chany_bottom_in[0]:25 *C 42.318 16.320
*N chany_bottom_in[0]:26 *C 42.320 16.262

*CAP
0 chany_bottom_in[0] 0.0006751423
1 mux_left_ipin_0\/mux_l1_in_0_:A1 1e-06
2 FTB_1__0:A 1e-06
3 chany_bottom_in[0]:3 8.558454e-05
4 chany_bottom_in[0]:4 8.435942e-05
5 chany_bottom_in[0]:5 7.492187e-05
6 chany_bottom_in[0]:6 7.492187e-05
7 chany_bottom_in[0]:7 0.0001497499
8 chany_bottom_in[0]:8 0.0001497499
9 chany_bottom_in[0]:9 8.435942e-05
10 chany_bottom_in[0]:10 0.0003744924
11 chany_bottom_in[0]:11 0.0003744924
12 chany_bottom_in[0]:12 0.0003973678
13 chany_bottom_in[0]:13 0.0003973678
14 chany_bottom_in[0]:14 0.0008392333
15 chany_bottom_in[0]:15 4.435934e-05
16 chany_bottom_in[0]:16 6.974034e-05
17 chany_bottom_in[0]:17 6.848487e-05
18 chany_bottom_in[0]:18 4.310386e-05
19 chany_bottom_in[0]:19 0.0009277911
20 chany_bottom_in[0]:20 6.108246e-05
21 chany_bottom_in[0]:21 0.0001554196
22 chany_bottom_in[0]:22 0.0001554196
23 chany_bottom_in[0]:23 0.0008410221
24 chany_bottom_in[0]:24 0.0008410221
25 chany_bottom_in[0]:25 8.558454e-05
26 chany_bottom_in[0]:26 0.0006751423
27 chany_bottom_in[0] chany_bottom_in[2] 0.0001622623
28 chany_bottom_in[0]:14 chany_bottom_in[2]:11 0.0001096148
29 chany_bottom_in[0]:14 chany_bottom_in[2]:8 1.018835e-05
30 chany_bottom_in[0]:20 chany_bottom_in[2]:16 2.146836e-05
31 chany_bottom_in[0]:26 chany_bottom_in[2]:16 0.0001622623
32 chany_bottom_in[0]:19 chany_bottom_in[2]:16 0.0001096148
33 chany_bottom_in[0]:19 chany_bottom_in[2]:11 2.146836e-05
34 chany_bottom_in[0]:19 chany_bottom_in[2]:9 1.018835e-05
35 chany_bottom_in[0]:11 chany_bottom_in[7]:7 0.000272168
36 chany_bottom_in[0]:9 chany_bottom_in[7]:4 1.700864e-05
37 chany_bottom_in[0]:10 chany_bottom_in[7]:6 0.000272168
38 chany_bottom_in[0]:4 chany_bottom_in[7]:5 1.700864e-05
39 chany_bottom_in[0]:14 chany_bottom_in[10]:12 1.130247e-05
40 chany_bottom_in[0]:11 chany_bottom_in[10]:13 0.0001425693
41 chany_bottom_in[0]:10 chany_bottom_in[10]:12 0.0001425693
42 chany_bottom_in[0]:23 chany_bottom_in[10]:12 0.0002609993
43 chany_bottom_in[0]:24 chany_bottom_in[10]:13 0.0002609993
44 chany_bottom_in[0]:19 chany_bottom_in[10]:13 1.130247e-05

*RES
0 chany_bottom_in[0] chany_bottom_in[0]:26 0.0133683
1 chany_bottom_in[0]:14 chany_bottom_in[0]:13 0.00341
2 chany_bottom_in[0]:13 chany_bottom_in[0]:12 0.000572225
3 chany_bottom_in[0]:12 chany_bottom_in[0]:11 0.00341
4 chany_bottom_in[0]:11 chany_bottom_in[0]:10 0.002021783
5 chany_bottom_in[0]:9 chany_bottom_in[0]:8 0.00341
6 chany_bottom_in[0]:9 chany_bottom_in[0]:4 0.0001039141
7 chany_bottom_in[0]:10 chany_bottom_in[0]:9 0.00341
8 chany_bottom_in[0]:8 chany_bottom_in[0]:7 0.001729911
9 chany_bottom_in[0]:6 chany_bottom_in[0]:5 0.0007477679
10 chany_bottom_in[0]:7 chany_bottom_in[0]:6 0.0045
11 chany_bottom_in[0]:5 FTB_1__0:A 0.152
12 chany_bottom_in[0]:20 chany_bottom_in[0]:19 0.001162946
13 chany_bottom_in[0]:21 chany_bottom_in[0]:20 0.00341
14 chany_bottom_in[0]:22 chany_bottom_in[0]:21 0.0002839583
15 chany_bottom_in[0]:23 chany_bottom_in[0]:22 0.00341
16 chany_bottom_in[0]:25 chany_bottom_in[0]:24 0.00341
17 chany_bottom_in[0]:25 chany_bottom_in[0]:3 0.000103914
18 chany_bottom_in[0]:24 chany_bottom_in[0]:23 0.00287405
19 chany_bottom_in[0]:26 chany_bottom_in[0]:25 0.00341
20 chany_bottom_in[0]:18 chany_bottom_in[0]:17 0.0003705357
21 chany_bottom_in[0]:19 chany_bottom_in[0]:18 0.0045
22 chany_bottom_in[0]:19 chany_bottom_in[0]:14 0.01634152
23 chany_bottom_in[0]:15 mux_left_ipin_0\/mux_l1_in_0_:A1 0.152
24 chany_bottom_in[0]:17 chany_bottom_in[0]:16 0.0003035715
25 chany_bottom_in[0]:16 chany_bottom_in[0]:15 0.0002924107

*END

*D_NET chany_bottom_in[16] 0.007915249 //LENGTH 66.915 LUMPCC 0.003248739 DR

*CONN
*P chany_bottom_in[16] I *L 0.29796 *C 28.060 1.290
*I mux_left_ipin_0\/mux_l2_in_2_:A0 I *L 0.001631 *C 26.395 15.300
*I BUFT_P_110:A I *L 0.001776 *C 28.980 63.920
*N chany_bottom_in[16]:3 *C 28.980 63.935
*N chany_bottom_in[16]:4 *C 28.980 64.260
*N chany_bottom_in[16]:5 *C 28.980 64.215
*N chany_bottom_in[16]:6 *C 28.980 39.780
*N chany_bottom_in[16]:7 *C 28.060 39.780
*N chany_bottom_in[16]:8 *C 26.433 15.300
*N chany_bottom_in[16]:9 *C 28.015 15.300
*N chany_bottom_in[16]:10 *C 28.060 15.300

*CAP
0 chany_bottom_in[16] 0.0005765803
1 mux_left_ipin_0\/mux_l2_in_2_:A0 1e-06
2 BUFT_P_110:A 1e-06
3 chany_bottom_in[16]:3 3.615886e-05
4 chany_bottom_in[16]:4 7.180473e-05
5 chany_bottom_in[16]:5 0.0007118294
6 chany_bottom_in[16]:6 0.0007588664
7 chany_bottom_in[16]:7 0.0008687969
8 chany_bottom_in[16]:8 0.0001059138
9 chany_bottom_in[16]:9 0.0001059138
10 chany_bottom_in[16]:10 0.001428647
11 chany_bottom_in[16]:4 chany_bottom_in[18]:3 2.258119e-06
12 chany_bottom_in[16]:5 chany_bottom_in[18]:6 0.000645481
13 chany_bottom_in[16]:3 chany_bottom_in[18]:4 2.258119e-06
14 chany_bottom_in[16]:10 chany_bottom_in[18]:7 8.450168e-05
15 chany_bottom_in[16]:7 chany_bottom_in[18]:6 8.450168e-05
16 chany_bottom_in[16]:6 chany_bottom_in[18]:7 0.000645481
17 chany_bottom_in[16] chany_top_in[18]:7 9.026246e-05
18 chany_bottom_in[16] chany_top_in[18]:9 8.262353e-05
19 chany_bottom_in[16]:5 chany_top_in[18] 3.491676e-05
20 chany_bottom_in[16]:5 chany_top_in[18]:10 0.000100603
21 chany_bottom_in[16]:10 chany_top_in[18]:9 0.0002993531
22 chany_bottom_in[16]:10 chany_top_in[18]:8 9.026246e-05
23 chany_bottom_in[16]:10 chany_top_in[18]:10 8.262353e-05
24 chany_bottom_in[16]:7 chany_top_in[18]:10 0.0002993531
25 chany_bottom_in[16]:6 chany_top_in[18]:9 0.000100603
26 chany_bottom_in[16]:6 chany_top_in[18]:10 3.491676e-05
27 chany_bottom_in[16]:9 mux_left_ipin_0/sky130_fd_sc_hd__mux2_1_5_X[0]:7 2.808864e-05
28 chany_bottom_in[16]:10 mux_left_ipin_0/sky130_fd_sc_hd__mux2_1_5_X[0]:5 7.233179e-05
29 chany_bottom_in[16]:8 mux_left_ipin_0/sky130_fd_sc_hd__mux2_1_5_X[0]:6 2.808864e-05
30 chany_bottom_in[16]:7 mux_left_ipin_0/sky130_fd_sc_hd__mux2_1_5_X[0]:4 7.233179e-05
31 chany_bottom_in[16]:10 mux_left_ipin_0/sky130_fd_sc_hd__mux2_1_8_X[0]:5 0.0001193253
32 chany_bottom_in[16]:7 mux_left_ipin_0/sky130_fd_sc_hd__mux2_1_8_X[0]:4 0.0001193253
33 chany_bottom_in[16] ropt_net_171:5 6.462392e-05
34 chany_bottom_in[16]:10 ropt_net_171:4 6.462392e-05

*RES
0 chany_bottom_in[16] chany_bottom_in[16]:10 0.01250893
1 chany_bottom_in[16]:4 chany_bottom_in[16]:3 0.0001766305
2 chany_bottom_in[16]:5 chany_bottom_in[16]:4 0.0045
3 chany_bottom_in[16]:3 BUFT_P_110:A 0.152
4 chany_bottom_in[16]:9 chany_bottom_in[16]:8 0.001412946
5 chany_bottom_in[16]:10 chany_bottom_in[16]:9 0.0045
6 chany_bottom_in[16]:10 chany_bottom_in[16]:7 0.02185714
7 chany_bottom_in[16]:8 mux_left_ipin_0\/mux_l2_in_2_:A0 0.152
8 chany_bottom_in[16]:7 chany_bottom_in[16]:6 0.0008214285
9 chany_bottom_in[16]:6 chany_bottom_in[16]:5 0.02181697

*END

*D_NET chany_bottom_in[19] 0.007710817 //LENGTH 66.640 LUMPCC 0.001747471 DR

*CONN
*P chany_bottom_in[19] I *L 0.29796 *C 27.600 1.210
*I BUFT_RR_58:A I *L 0.001776 *C 24.840 63.920
*N chany_bottom_in[19]:2 *C 24.878 63.920
*N chany_bottom_in[19]:3 *C 26.175 63.920
*N chany_bottom_in[19]:4 *C 26.220 63.875
*N chany_bottom_in[19]:5 *C 26.220 9.578
*N chany_bottom_in[19]:6 *C 26.228 9.520
*N chany_bottom_in[19]:7 *C 27.580 9.520
*N chany_bottom_in[19]:8 *C 27.600 9.513

*CAP
0 chany_bottom_in[19] 0.0005127331
1 BUFT_RR_58:A 1e-06
2 chany_bottom_in[19]:2 0.0001160412
3 chany_bottom_in[19]:3 0.0001160412
4 chany_bottom_in[19]:4 0.002236019
5 chany_bottom_in[19]:5 0.002236019
6 chany_bottom_in[19]:6 0.0001163801
7 chany_bottom_in[19]:7 0.0001163801
8 chany_bottom_in[19]:8 0.0005127331
9 chany_bottom_in[19]:4 chany_top_in[18] 9.099583e-05
10 chany_bottom_in[19]:4 chany_top_in[18]:10 0.0004558971
11 chany_bottom_in[19]:5 chany_top_in[18]:9 0.0004558971
12 chany_bottom_in[19]:5 chany_top_in[18]:10 9.099583e-05
13 chany_bottom_in[19]:4 mux_tree_tapbuf_size10_0_sram[3]:8 0.0001359765
14 chany_bottom_in[19]:4 mux_tree_tapbuf_size10_0_sram[3]:9 7.313693e-05
15 chany_bottom_in[19]:5 mux_tree_tapbuf_size10_0_sram[3]:5 0.0001359765
16 chany_bottom_in[19]:5 mux_tree_tapbuf_size10_0_sram[3]:8 7.313693e-05
17 chany_bottom_in[19]:4 mux_left_ipin_0/sky130_fd_sc_hd__mux2_1_6_X[0]:3 0.0001177291
18 chany_bottom_in[19]:5 mux_left_ipin_0/sky130_fd_sc_hd__mux2_1_6_X[0]:4 0.0001177291

*RES
0 chany_bottom_in[19] chany_bottom_in[19]:8 0.001300725
1 chany_bottom_in[19]:2 BUFT_RR_58:A 0.152
2 chany_bottom_in[19]:3 chany_bottom_in[19]:2 0.001158482
3 chany_bottom_in[19]:4 chany_bottom_in[19]:3 0.0045
4 chany_bottom_in[19]:5 chany_bottom_in[19]:4 0.04847991
5 chany_bottom_in[19]:6 chany_bottom_in[19]:5 0.00341
6 chany_bottom_in[19]:7 chany_bottom_in[19]:6 0.0002118917
7 chany_bottom_in[19]:8 chany_bottom_in[19]:7 0.00341

*END

*D_NET chany_top_in[2] 0.007047084 //LENGTH 64.565 LUMPCC 0.0005902 DR

*CONN
*P chany_top_in[2] I *L 0.29796 *C 45.080 74.870
*I mux_left_ipin_0\/mux_l1_in_1_:A0 I *L 0.001631 *C 51.350 31.960
*I BUFT_RR_60:A I *L 0.001776 *C 50.600 17.680
*N chany_top_in[2]:3 *C 50.600 17.680
*N chany_top_in[2]:4 *C 50.600 17.725
*N chany_top_in[2]:5 *C 51.312 31.960
*N chany_top_in[2]:6 *C 50.645 31.960
*N chany_top_in[2]:7 *C 50.600 31.960
*N chany_top_in[2]:8 *C 50.600 39.055
*N chany_top_in[2]:9 *C 50.555 39.100
*N chany_top_in[2]:10 *C 45.125 39.100
*N chany_top_in[2]:11 *C 45.080 39.145

*CAP
0 chany_top_in[2] 0.001959506
1 mux_left_ipin_0\/mux_l1_in_1_:A0 1e-06
2 BUFT_RR_60:A 1e-06
3 chany_top_in[2]:3 3.345609e-05
4 chany_top_in[2]:4 0.0005890904
5 chany_top_in[2]:5 7.421072e-05
6 chany_top_in[2]:6 7.421072e-05
7 chany_top_in[2]:7 0.0008751916
8 chany_top_in[2]:8 0.0002569776
9 chany_top_in[2]:9 0.0003163673
10 chany_top_in[2]:10 0.0003163673
11 chany_top_in[2]:11 0.001959506
12 chany_top_in[2]:8 chany_top_in[6]:5 0.0001065439
13 chany_top_in[2]:4 chany_top_in[6]:4 0.0001885561
14 chany_top_in[2]:7 chany_top_in[6]:4 0.0001065439
15 chany_top_in[2]:7 chany_top_in[6]:5 0.0001885561

*RES
0 chany_top_in[2] chany_top_in[2]:11 0.03189733
1 chany_top_in[2]:9 chany_top_in[2]:8 0.0045
2 chany_top_in[2]:8 chany_top_in[2]:7 0.006334822
3 chany_top_in[2]:10 chany_top_in[2]:9 0.004848215
4 chany_top_in[2]:11 chany_top_in[2]:10 0.0045
5 chany_top_in[2]:3 BUFT_RR_60:A 0.152
6 chany_top_in[2]:4 chany_top_in[2]:3 0.0045
7 chany_top_in[2]:6 chany_top_in[2]:5 0.0005959822
8 chany_top_in[2]:7 chany_top_in[2]:6 0.0045
9 chany_top_in[2]:7 chany_top_in[2]:4 0.01270982
10 chany_top_in[2]:5 mux_left_ipin_0\/mux_l1_in_1_:A0 0.152

*END

*D_NET chany_top_in[4] 0.01109211 //LENGTH 91.815 LUMPCC 0.002705909 DR

*CONN
*P chany_top_in[4] I *L 0.29796 *C 42.320 74.870
*I FTB_25__24:A I *L 0.001776 *C 26.680 12.240
*I mux_left_ipin_0\/mux_l1_in_2_:A0 I *L 0.001631 *C 51.810 22.780
*N chany_top_in[4]:3 *C 51.773 22.780
*N chany_top_in[4]:4 *C 42.320 22.780
*N chany_top_in[4]:5 *C 26.643 12.240
*N chany_top_in[4]:6 *C 25.805 12.240
*N chany_top_in[4]:7 *C 25.760 12.240
*N chany_top_in[4]:8 *C 25.768 12.240
*N chany_top_in[4]:9 *C 35.873 12.240
*N chany_top_in[4]:10 *C 35.880 12.298
*N chany_top_in[4]:11 *C 35.880 23.075
*N chany_top_in[4]:12 *C 35.925 23.120
*N chany_top_in[4]:13 *C 42.320 23.090
*N chany_top_in[4]:14 *C 42.320 23.165

*CAP
0 chany_top_in[4] 0.002297603
1 FTB_25__24:A 1e-06
2 mux_left_ipin_0\/mux_l1_in_2_:A0 1e-06
3 chany_top_in[4]:3 0.0002911402
4 chany_top_in[4]:4 0.0003161366
5 chany_top_in[4]:5 7.103562e-05
6 chany_top_in[4]:6 7.103562e-05
7 chany_top_in[4]:7 3.374561e-05
8 chany_top_in[4]:8 0.0006441245
9 chany_top_in[4]:9 0.0006441245
10 chany_top_in[4]:10 0.0005335863
11 chany_top_in[4]:11 0.0005335863
12 chany_top_in[4]:12 0.0003127395
13 chany_top_in[4]:13 0.0003377359
14 chany_top_in[4]:14 0.002297603
15 chany_top_in[4] chany_bottom_in[11]:8 0.000284506
16 chany_top_in[4] chany_bottom_in[11]:12 3.875146e-05
17 chany_top_in[4]:14 chany_bottom_in[11]:9 0.000284506
18 chany_top_in[4]:14 chany_bottom_in[11]:13 3.875146e-05
19 chany_top_in[4] mux_left_ipin_0/sky130_fd_sc_hd__mux2_1_0_X[0]:5 0.0002010964
20 chany_top_in[4]:14 mux_left_ipin_0/sky130_fd_sc_hd__mux2_1_0_X[0]:4 0.0002010964
21 chany_top_in[4]:3 mux_left_ipin_0/sky130_fd_sc_hd__mux2_1_2_X[0]:10 0.0001697382
22 chany_top_in[4]:4 mux_left_ipin_0/sky130_fd_sc_hd__mux2_1_2_X[0]:9 0.0001697382
23 chany_top_in[4]:11 mux_left_ipin_0/sky130_fd_sc_hd__mux2_1_3_X[0]:5 9.229173e-05
24 chany_top_in[4]:10 mux_left_ipin_0/sky130_fd_sc_hd__mux2_1_3_X[0]:4 9.229173e-05
25 chany_top_in[4]:3 mux_left_ipin_0/sky130_fd_sc_hd__mux2_1_9_X[0]:6 0.0003587374
26 chany_top_in[4]:13 mux_left_ipin_0/sky130_fd_sc_hd__mux2_1_9_X[0]:6 9.457186e-05
27 chany_top_in[4]:12 mux_left_ipin_0/sky130_fd_sc_hd__mux2_1_9_X[0]:7 9.457186e-05
28 chany_top_in[4]:4 mux_left_ipin_0/sky130_fd_sc_hd__mux2_1_9_X[0]:7 0.0003587374
29 chany_top_in[4] ropt_net_196:7 0.0001132616
30 chany_top_in[4]:14 ropt_net_196:8 0.0001132616

*RES
0 chany_top_in[4] chany_top_in[4]:14 0.04616518
1 chany_top_in[4]:3 mux_left_ipin_0\/mux_l1_in_2_:A0 0.152
2 chany_top_in[4]:13 chany_top_in[4]:12 0.005709821
3 chany_top_in[4]:13 chany_top_in[4]:4 0.0002767857
4 chany_top_in[4]:14 chany_top_in[4]:13 0.0045
5 chany_top_in[4]:12 chany_top_in[4]:11 0.0045
6 chany_top_in[4]:11 chany_top_in[4]:10 0.009622768
7 chany_top_in[4]:10 chany_top_in[4]:9 0.00341
8 chany_top_in[4]:9 chany_top_in[4]:8 0.001583117
9 chany_top_in[4]:7 chany_top_in[4]:6 0.0045
10 chany_top_in[4]:8 chany_top_in[4]:7 0.00341
11 chany_top_in[4]:6 chany_top_in[4]:5 0.0007477679
12 chany_top_in[4]:5 FTB_25__24:A 0.152
13 chany_top_in[4]:4 chany_top_in[4]:3 0.008439733

*END

*D_NET chany_top_in[9] 0.008646103 //LENGTH 70.830 LUMPCC 0.003411184 DR

*CONN
*P chany_top_in[9] I *L 0.29796 *C 29.900 74.870
*I BUFT_RR_66:A I *L 0.001776 *C 40.020 14.960
*N chany_top_in[9]:2 *C 40.020 14.960
*N chany_top_in[9]:3 *C 40.020 15.005
*N chany_top_in[9]:4 *C 40.020 44.495
*N chany_top_in[9]:5 *C 39.975 44.540
*N chany_top_in[9]:6 *C 29.945 44.540
*N chany_top_in[9]:7 *C 29.900 44.585

*CAP
0 chany_top_in[9] 0.0007868815
1 BUFT_RR_66:A 1e-06
2 chany_top_in[9]:2 3.672723e-05
3 chany_top_in[9]:3 0.001233176
4 chany_top_in[9]:4 0.001233176
5 chany_top_in[9]:5 0.0005785379
6 chany_top_in[9]:6 0.0005785379
7 chany_top_in[9]:7 0.0007868815
8 chany_top_in[9]:3 chany_bottom_in[17]:9 0.0003728223
9 chany_top_in[9]:4 chany_bottom_in[17]:8 0.0003728223
10 chany_top_in[9] chany_bottom_in[18]:6 0.0005180864
11 chany_top_in[9]:7 chany_bottom_in[18]:7 0.0005180864
12 chany_top_in[9] chany_top_in[11]:12 0.0004688075
13 chany_top_in[9] chany_top_in[11]:13 0.0003458759
14 chany_top_in[9]:7 chany_top_in[11]:12 0.0003458759
15 chany_top_in[9]:7 chany_top_in[11]:10 0.0004688075

*RES
0 chany_top_in[9] chany_top_in[9]:7 0.02704018
1 chany_top_in[9]:2 BUFT_RR_66:A 0.152
2 chany_top_in[9]:3 chany_top_in[9]:2 0.0045
3 chany_top_in[9]:5 chany_top_in[9]:4 0.0045
4 chany_top_in[9]:4 chany_top_in[9]:3 0.02633036
5 chany_top_in[9]:6 chany_top_in[9]:5 0.008955358
6 chany_top_in[9]:7 chany_top_in[9]:6 0.0045

*END

*D_NET chany_top_in[11] 0.01140537 //LENGTH 97.495 LUMPCC 0.002501168 DR

*CONN
*P chany_top_in[11] I *L 0.29796 *C 46.920 75.480
*I mux_right_ipin_0\/mux_l2_in_2_:A1 I *L 0.00198 *C 30.360 61.540
*I BUFT_RR_68:A I *L 0.001776 *C 23.920 4.080
*N chany_top_in[11]:3 *C 23.943 4.107
*N chany_top_in[11]:4 *C 23.955 4.420
*N chany_top_in[11]:5 *C 25.255 4.420
*N chany_top_in[11]:6 *C 25.300 4.465
*N chany_top_in[11]:7 *C 25.300 6.755
*N chany_top_in[11]:8 *C 25.345 6.800
*N chany_top_in[11]:9 *C 30.315 6.800
*N chany_top_in[11]:10 *C 30.360 6.845
*N chany_top_in[11]:11 *C 30.360 61.540
*N chany_top_in[11]:12 *C 30.360 61.540
*N chany_top_in[11]:13 *C 30.360 74.415
*N chany_top_in[11]:14 *C 30.360 74.460
*N chany_top_in[11]:15 *C 30.360 74.800
*N chany_top_in[11]:16 *C 39.560 74.800
*N chany_top_in[11]:17 *C 39.560 74.460
*N chany_top_in[11]:18 *C 46.415 74.460
*N chany_top_in[11]:19 *C 46.460 74.505
*N chany_top_in[11]:20 *C 46.460 75.480

*CAP
0 chany_top_in[11] 3.332853e-05
1 mux_right_ipin_0\/mux_l2_in_2_:A1 1e-06
2 BUFT_RR_68:A 1e-06
3 chany_top_in[11]:3 2.804437e-05
4 chany_top_in[11]:4 0.0001153879
5 chany_top_in[11]:5 8.73435e-05
6 chany_top_in[11]:6 0.0001229344
7 chany_top_in[11]:7 0.0001229344
8 chany_top_in[11]:8 0.0003223437
9 chany_top_in[11]:9 0.0003223437
10 chany_top_in[11]:10 0.0022203
11 chany_top_in[11]:11 3.552783e-05
12 chany_top_in[11]:12 0.002717565
13 chany_top_in[11]:13 0.0004658414
14 chany_top_in[11]:14 6.659287e-05
15 chany_top_in[11]:15 0.0005665977
16 chany_top_in[11]:16 0.000559821
17 chany_top_in[11]:17 0.0004719745
18 chany_top_in[11]:18 0.0004481563
19 chany_top_in[11]:19 8.091843e-05
20 chany_top_in[11]:20 0.000114247
21 chany_top_in[11]:12 chany_bottom_in[18]:6 0.0002498152
22 chany_top_in[11]:12 chany_bottom_in[18]:9 7.165344e-06
23 chany_top_in[11]:10 chany_bottom_in[18] 7.165344e-06
24 chany_top_in[11]:10 chany_bottom_in[18]:7 0.0002498152
25 chany_top_in[11]:12 chany_top_in[9] 0.0004688075
26 chany_top_in[11]:12 chany_top_in[9]:7 0.0003458759
27 chany_top_in[11]:13 chany_top_in[9] 0.0003458759
28 chany_top_in[11]:10 chany_top_in[9]:7 0.0004688075
29 chany_top_in[11]:12 ropt_net_186:7 5.031013e-05
30 chany_top_in[11]:13 ropt_net_186:6 5.031013e-05
31 chany_top_in[11]:7 ropt_net_192:5 3.036029e-05
32 chany_top_in[11]:5 ropt_net_192:3 2.890922e-05
33 chany_top_in[11]:6 ropt_net_192:4 3.036029e-05
34 chany_top_in[11]:4 ropt_net_192:2 2.890922e-05
35 chany_top_in[11]:12 ropt_net_185:5 6.934039e-05
36 chany_top_in[11]:10 ropt_net_185:4 6.934039e-05

*RES
0 chany_top_in[11] chany_top_in[11]:20 0.0004107143
1 chany_top_in[11]:11 mux_right_ipin_0\/mux_l2_in_2_:A1 0.152
2 chany_top_in[11]:12 chany_top_in[11]:11 0.0045
3 chany_top_in[11]:12 chany_top_in[11]:10 0.04883483
4 chany_top_in[11]:14 chany_top_in[11]:13 0.0045
5 chany_top_in[11]:13 chany_top_in[11]:12 0.01149554
6 chany_top_in[11]:18 chany_top_in[11]:17 0.006120536
7 chany_top_in[11]:19 chany_top_in[11]:18 0.0045
8 chany_top_in[11]:9 chany_top_in[11]:8 0.0044375
9 chany_top_in[11]:10 chany_top_in[11]:9 0.0045
10 chany_top_in[11]:8 chany_top_in[11]:7 0.0045
11 chany_top_in[11]:7 chany_top_in[11]:6 0.002044643
12 chany_top_in[11]:5 chany_top_in[11]:4 0.001160714
13 chany_top_in[11]:6 chany_top_in[11]:5 0.0045
14 chany_top_in[11]:3 BUFT_RR_68:A 0.152
15 chany_top_in[11]:4 chany_top_in[11]:3 0.0002111487
16 chany_top_in[11]:15 chany_top_in[11]:14 0.0003035715
17 chany_top_in[11]:16 chany_top_in[11]:15 0.008214286
18 chany_top_in[11]:17 chany_top_in[11]:16 0.0003035715
19 chany_top_in[11]:20 chany_top_in[11]:19 0.0008705358

*END

*D_NET chany_top_in[16] 0.007363735 //LENGTH 71.155 LUMPCC 0.0005164247 DR

*CONN
*P chany_top_in[16] I *L 0.29796 *C 33.120 74.870
*I mux_left_ipin_0\/mux_l2_in_3_:A1 I *L 0.00198 *C 28.885 12.580
*I BUFT_P_112:A I *L 0.001767 *C 36.340 12.240
*N chany_top_in[16]:3 *C 36.303 12.240
*N chany_top_in[16]:4 *C 28.923 12.580
*N chany_top_in[16]:5 *C 32.200 12.580
*N chany_top_in[16]:6 *C 32.200 12.240
*N chany_top_in[16]:7 *C 33.120 12.240
*N chany_top_in[16]:8 *C 33.120 12.285
*N chany_top_in[16]:9 *C 33.120 62.080

*CAP
0 chany_top_in[16] 0.0006809664
1 mux_left_ipin_0\/mux_l2_in_3_:A1 1e-06
2 BUFT_P_112:A 1e-06
3 chany_top_in[16]:3 0.0001635854
4 chany_top_in[16]:4 0.0002485909
5 chany_top_in[16]:5 0.0002725235
6 chany_top_in[16]:6 6.145931e-05
7 chany_top_in[16]:7 0.0002319203
8 chany_top_in[16]:8 0.002252649
9 chany_top_in[16]:9 0.002933615
10 chany_top_in[16]:8 mux_tree_tapbuf_size10_mem_0_ccff_tail[0]:5 0.0001921551
11 chany_top_in[16]:9 mux_tree_tapbuf_size10_mem_0_ccff_tail[0]:4 0.0001921551
12 chany_top_in[16]:4 ropt_net_185:6 1.913286e-06
13 chany_top_in[16]:7 ropt_net_185:6 4.662605e-05
14 chany_top_in[16]:7 ropt_net_185:7 1.751795e-05
15 chany_top_in[16]:3 ropt_net_185:7 4.662605e-05
16 chany_top_in[16]:5 ropt_net_185:7 1.913286e-06
17 chany_top_in[16]:6 ropt_net_185:6 1.751795e-05

*RES
0 chany_top_in[16] chany_top_in[16]:9 0.01141964
1 chany_top_in[16]:4 mux_left_ipin_0\/mux_l2_in_3_:A1 0.152
2 chany_top_in[16]:7 chany_top_in[16]:6 0.0008214285
3 chany_top_in[16]:7 chany_top_in[16]:3 0.002841518
4 chany_top_in[16]:8 chany_top_in[16]:7 0.0045
5 chany_top_in[16]:3 BUFT_P_112:A 0.152
6 chany_top_in[16]:5 chany_top_in[16]:4 0.002926339
7 chany_top_in[16]:6 chany_top_in[16]:5 0.0003035715
8 chany_top_in[16]:9 chany_top_in[16]:8 0.04445983

*END

*D_NET chany_top_in[19] 0.008842234 //LENGTH 83.210 LUMPCC 0.002834645 DR

*CONN
*P chany_top_in[19] I *L 0.29796 *C 28.060 74.835
*I BUFT_P_113:A I *L 0.001767 *C 38.640 4.080
*N chany_top_in[19]:2 *C 38.602 4.080
*N chany_top_in[19]:3 *C 36.385 4.080
*N chany_top_in[19]:4 *C 36.340 4.125
*N chany_top_in[19]:5 *C 36.340 10.143
*N chany_top_in[19]:6 *C 36.333 10.200
*N chany_top_in[19]:7 *C 34.980 10.200
*N chany_top_in[19]:8 *C 34.960 10.208
*N chany_top_in[19]:9 *C 34.960 60.035
*N chany_top_in[19]:10 *C 34.960 74.112
*N chany_top_in[19]:11 *C 34.940 74.120
*N chany_top_in[19]:12 *C 28.068 74.120
*N chany_top_in[19]:13 *C 28.060 74.178

*CAP
0 chany_top_in[19] 4.39826e-05
1 BUFT_P_113:A 1e-06
2 chany_top_in[19]:2 0.0001988245
3 chany_top_in[19]:3 0.0001988245
4 chany_top_in[19]:4 0.000395562
5 chany_top_in[19]:5 0.000395562
6 chany_top_in[19]:6 0.0001035263
7 chany_top_in[19]:7 0.0001035263
8 chany_top_in[19]:8 0.001143818
9 chany_top_in[19]:9 0.001765891
10 chany_top_in[19]:10 0.000622073
11 chany_top_in[19]:11 0.0004955085
12 chany_top_in[19]:12 0.0004955085
13 chany_top_in[19]:13 4.39826e-05
14 chany_top_in[19]:8 chany_bottom_in[15] 0.0004215884
15 chany_top_in[19]:8 chany_bottom_in[15]:8 8.355786e-05
16 chany_top_in[19]:10 chany_bottom_in[15]:7 3.541547e-05
17 chany_top_in[19]:9 chany_bottom_in[15]:7 8.355786e-05
18 chany_top_in[19]:9 chany_bottom_in[15]:8 0.0004570039
19 chany_top_in[19] chany_top_in[15] 1.233879e-05
20 chany_top_in[19]:8 chany_top_in[15]:8 0.0007251126
21 chany_top_in[19]:10 chany_top_in[15]:9 2.614725e-05
22 chany_top_in[19]:10 chany_top_in[15]:10 0.0001131622
23 chany_top_in[19]:13 chany_top_in[15]:13 1.233879e-05
24 chany_top_in[19]:9 chany_top_in[15]:8 2.614725e-05
25 chany_top_in[19]:9 chany_top_in[15]:9 0.0008382748

*RES
0 chany_top_in[19] chany_top_in[19]:13 0.0005870535
1 chany_top_in[19]:2 BUFT_P_113:A 0.152
2 chany_top_in[19]:3 chany_top_in[19]:2 0.001979911
3 chany_top_in[19]:4 chany_top_in[19]:3 0.0045
4 chany_top_in[19]:5 chany_top_in[19]:4 0.005372768
5 chany_top_in[19]:6 chany_top_in[19]:5 0.00341
6 chany_top_in[19]:7 chany_top_in[19]:6 0.0002118916
7 chany_top_in[19]:8 chany_top_in[19]:7 0.00341
8 chany_top_in[19]:11 chany_top_in[19]:10 0.00341
9 chany_top_in[19]:10 chany_top_in[19]:9 0.002205475
10 chany_top_in[19]:13 chany_top_in[19]:12 0.00341
11 chany_top_in[19]:12 chany_top_in[19]:11 0.001076692
12 chany_top_in[19]:9 chany_top_in[19]:8 0.007806308

*END

*D_NET ccff_head[0] 0.006077428 //LENGTH 47.850 LUMPCC 0 DR

*CONN
*P ccff_head[0] I *L 0.29796 *C 32.200 74.870
*I mem_left_ipin_0\/sky130_fd_sc_hd__dfxbp_1_0_:D I *L 0.001695 *C 22.715 39.100
*N ccff_head[0]:2 *C 31.490 73.440
*N ccff_head[0]:3 *C 22.715 39.100
*N ccff_head[0]:4 *C 23.000 39.100
*N ccff_head[0]:5 *C 23.000 39.100
*N ccff_head[0]:6 *C 23.000 39.440
*N ccff_head[0]:7 *C 23.008 39.440
*N ccff_head[0]:8 *C 27.580 39.440
*N ccff_head[0]:9 *C 27.600 39.448
*N ccff_head[0]:10 *C 27.600 68.672
*N ccff_head[0]:11 *C 27.620 68.680
*N ccff_head[0]:12 *C 32.180 68.680
*N ccff_head[0]:13 *C 32.200 68.688
*N ccff_head[0]:14 *C 32.200 73.433
*N ccff_head[0]:15 *C 32.197 73.440
*N ccff_head[0]:16 *C 32.200 73.498

*CAP
0 ccff_head[0] 9.359835e-05
1 mem_left_ipin_0\/sky130_fd_sc_hd__dfxbp_1_0_:D 1e-06
2 ccff_head[0]:2 0.0001293959
3 ccff_head[0]:3 4.643422e-05
4 ccff_head[0]:4 5.060668e-05
5 ccff_head[0]:5 5.030277e-05
6 ccff_head[0]:6 5.407521e-05
7 ccff_head[0]:7 0.0003325371
8 ccff_head[0]:8 0.0003325371
9 ccff_head[0]:9 0.001667785
10 ccff_head[0]:10 0.001667785
11 ccff_head[0]:11 0.000421195
12 ccff_head[0]:12 0.000421195
13 ccff_head[0]:13 0.0002929935
14 ccff_head[0]:14 0.0002929935
15 ccff_head[0]:15 0.0001293959
16 ccff_head[0]:16 9.359835e-05

*RES
0 ccff_head[0] ccff_head[0]:16 0.001225447
1 ccff_head[0]:3 mem_left_ipin_0\/sky130_fd_sc_hd__dfxbp_1_0_:D 0.152
2 ccff_head[0]:4 ccff_head[0]:3 0.0001548913
3 ccff_head[0]:5 ccff_head[0]:4 0.0045
4 ccff_head[0]:6 ccff_head[0]:5 0.0001634615
5 ccff_head[0]:7 ccff_head[0]:6 0.00341
6 ccff_head[0]:8 ccff_head[0]:7 0.0007163583
7 ccff_head[0]:9 ccff_head[0]:8 0.00341
8 ccff_head[0]:11 ccff_head[0]:10 0.00341
9 ccff_head[0]:10 ccff_head[0]:9 0.004578583
10 ccff_head[0]:12 ccff_head[0]:11 0.0007144
11 ccff_head[0]:13 ccff_head[0]:12 0.00341
12 ccff_head[0]:15 ccff_head[0]:14 0.00341
13 ccff_head[0]:15 ccff_head[0]:2 0.0001039141
14 ccff_head[0]:14 ccff_head[0]:13 0.0007433833
15 ccff_head[0]:16 ccff_head[0]:15 0.00341

*END

*D_NET right_grid_pin_52_[0] 0.0008315985 //LENGTH 8.245 LUMPCC 0 DR

*CONN
*I mux_left_ipin_0\/sky130_fd_sc_hd__buf_4_0_:X O *L 0 *C 58.940 39.440
*P right_grid_pin_52_[0] O *L 0.7423 *C 65.010 40.800
*N right_grid_pin_52_[0]:2 *C 59.348 40.800
*N right_grid_pin_52_[0]:3 *C 59.340 40.742
*N right_grid_pin_52_[0]:4 *C 59.340 39.485
*N right_grid_pin_52_[0]:5 *C 59.318 39.440
*N right_grid_pin_52_[0]:6 *C 58.955 39.440

*CAP
0 mux_left_ipin_0\/sky130_fd_sc_hd__buf_4_0_:X 1e-06
1 right_grid_pin_52_[0] 0.0002695956
2 right_grid_pin_52_[0]:2 0.0002695956
3 right_grid_pin_52_[0]:3 0.0001060725
4 right_grid_pin_52_[0]:4 0.0001060725
5 right_grid_pin_52_[0]:5 3.963114e-05
6 right_grid_pin_52_[0]:6 3.963114e-05

*RES