*SPEF "1481-1998"
*DESIGN "cby_1__1_"
*DATE "Tue Oct 27 14:44:58 2020"
*
*
*
*
*DIVIDER /
*DELIMITER :
*T_UNIT 1 NS
*C_UNIT 1 PF
*R_UNIT 1 KOHM
*L_UNIT 1 HENRY

// XY_UNIT 1 UM
// PARASITIC_TECH nominal at 25.000 degree

*PORTS
prog_clk[0] I *C 2.300 75.480
chany_bottom_in[0] I *C 48.300 0.680
chany_bottom_in[1] I *C 22.080 0.680
chany_bottom_in[2] I *C 46.460 0.680
chany_bottom_in[3] I *C 20.240 0.680
chany_bottom_in[4] I *C 51.060 0.680
chany_bottom_in[5] I *C 38.640 0.680
chany_bottom_in[6] I *C 50.140 0.680
chany_bottom_in[7] I *C 34.960 0.680
chany_bottom_in[8] I *C 49.220 0.680
chany_bottom_in[9] I *C 24.840 0.680
chany_bottom_in[10] I *C 51.980 0.680
chany_bottom_in[11] I *C 29.900 0.680
chany_bottom_in[12] I *C 52.900 0.680
chany_bottom_in[13] I *C 9.200 0.680
chany_bottom_in[14] I *C 41.860 0.680
chany_bottom_in[15] I *C 27.600 0.680
chany_bottom_in[16] I *C 42.780 0.680
chany_bottom_in[17] I *C 23.000 0.680
chany_bottom_in[18] I *C 19.320 0.680
chany_bottom_in[19] I *C 28.520 0.680
chany_top_in[0] I *C 37.720 75.480
chany_top_in[1] I *C 24.840 75.480
chany_top_in[2] I *C 39.100 75.480
chany_top_in[3] I *C 27.600 75.480
chany_top_in[4] I *C 48.300 75.480
chany_top_in[5] I *C 32.660 75.480
chany_top_in[6] I *C 44.620 75.480
chany_top_in[7] I *C 34.500 75.480
chany_top_in[8] I *C 47.380 75.480
chany_top_in[9] I *C 29.440 75.480
chany_top_in[10] I *C 45.540 75.480
chany_top_in[11] I *C 28.520 75.480
chany_top_in[12] I *C 38.640 75.480
chany_top_in[13] I *C 17.480 75.480
chany_top_in[14] I *C 46.460 75.480
chany_top_in[15] I *C 35.880 75.480
chany_top_in[16] I *C 52.900 75.480
chany_top_in[17] I *C 36.800 75.480
chany_top_in[18] I *C 33.580 75.480
chany_top_in[19] I *C 23.920 75.480
ccff_head[0] I *C 0.690 19.040
chany_bottom_out[0] O *C 47.380 0.680
chany_bottom_out[1] O *C 23.920 0.680
chany_bottom_out[2] O *C 37.720 0.680
chany_bottom_out[3] O *C 33.580 0.680
chany_bottom_out[4] O *C 31.280 0.680
chany_bottom_out[5] O *C 31.740 0.680
chany_bottom_out[6] O *C 36.800 0.680
chany_bottom_out[7] O *C 40.940 0.680
chany_bottom_out[8] O *C 37.720 0.680
chany_bottom_out[9] O *C 39.560 0.680
chany_bottom_out[10] O *C 34.960 0.680
chany_bottom_out[11] O *C 30.820 0.680
chany_bottom_out[12] O *C 29.440 0.680
chany_bottom_out[13] O *C 26.680 0.680
chany_bottom_out[14] O *C 35.880 0.680
chany_bottom_out[15] O *C 32.660 0.680
chany_bottom_out[16] O *C 33.120 0.680
chany_bottom_out[17] O *C 23.000 0.680
chany_bottom_out[18] O *C 21.160 0.680
chany_bottom_out[19] O *C 21.160 0.680
chany_top_out[0] O *C 36.800 75.480
chany_top_out[1] O *C 21.160 75.480
chany_top_out[2] O *C 50.140 75.480
chany_top_out[3] O *C 41.400 75.480
chany_top_out[4] O *C 51.060 75.480
chany_top_out[5] O *C 31.740 75.480
chany_top_out[6] O *C 51.980 75.480
chany_top_out[7] O *C 42.320 75.480
chany_top_out[8] O *C 49.220 75.480
chany_top_out[9] O *C 43.240 75.480
chany_top_out[10] O *C 27.600 75.480
chany_top_out[11] O *C 40.020 75.480
chany_top_out[12] O *C 19.320 75.480
chany_top_out[13] O *C 22.080 75.480
chany_top_out[14] O *C 34.040 75.480
chany_top_out[15] O *C 30.360 75.480
chany_top_out[16] O *C 20.240 75.480
chany_top_out[17] O *C 23.000 75.480
chany_top_out[18] O *C 26.680 75.480
chany_top_out[19] O *C 53.820 75.480
right_grid_pin_52_[0] O *C 65.550 40.800
left_grid_pin_0_[0] O *C 0.690 55.760
left_grid_pin_1_[0] O *C 0.690 69.360
left_grid_pin_2_[0] O *C 0.690 68.000
left_grid_pin_3_[0] O *C 0.690 66.640
left_grid_pin_4_[0] O *C 0.690 61.200
left_grid_pin_5_[0] O *C 0.690 59.840
left_grid_pin_6_[0] O *C 0.690 62.560
left_grid_pin_7_[0] O *C 0.690 63.920
left_grid_pin_8_[0] O *C 0.690 43.520
left_grid_pin_9_[0] O *C 0.690 58.480
left_grid_pin_10_[0] O *C 0.690 65.280
left_grid_pin_11_[0] O *C 0.690 57.120
left_grid_pin_12_[0] O *C 0.690 42.160
left_grid_pin_13_[0] O *C 0.690 38.080
left_grid_pin_14_[0] O *C 0.690 39.440
left_grid_pin_15_[0] O *C 0.690 40.800
ccff_tail[0] O *C 65.550 39.440
VDD I *C 33.120 38.080
VSS I *C 33.120 38.080

*D_NET chany_bottom_in[0] 0.01582885 //LENGTH 106.135 LUMPCC 0.003437854 DR

*CONN
*P chany_bottom_in[0] I *L 0.29796 *C 48.300 1.290
*I mux_right_ipin_9\/mux_l1_in_0_:A1 I *L 0.00198 *C 44.720 34.340
*I mux_right_ipin_15\/mux_l1_in_0_:A1 I *L 0.00198 *C 45.180 36.380
*I mux_right_ipin_7\/mux_l1_in_0_:A1 I *L 0.00198 *C 45.640 41.820
*I mux_left_ipin_0\/mux_l1_in_0_:A1 I *L 0.00198 *C 43.340 56.100
*I BUFT_RR_77:A I *L 0.001767 *C 37.720 66.640
*I mux_right_ipin_1\/mux_l1_in_0_:A1 I *L 0.00198 *C 40.480 66.980
*I mux_right_ipin_3\/mux_l1_in_0_:A1 I *L 0.00198 *C 44.160 66.980
*I mux_right_ipin_11\/mux_l1_in_0_:A1 I *L 0.00198 *C 57.040 28.900
*I mux_right_ipin_5\/mux_l1_in_0_:A1 I *L 0.00198 *C 51.520 18.020
*I mux_right_ipin_13\/mux_l1_in_0_:A1 I *L 0.00198 *C 46.920 7.140
*N chany_bottom_in[0]:11 *C 46.958 7.140
*N chany_bottom_in[0]:12 *C 48.300 7.140
*N chany_bottom_in[0]:13 *C 48.300 6.800
*N chany_bottom_in[0]:14 *C 48.300 6.755
*N chany_bottom_in[0]:15 *C 47.440 18.020
*N chany_bottom_in[0]:16 *C 51.483 18.020
*N chany_bottom_in[0]:17 *C 57.040 28.900
*N chany_bottom_in[0]:18 *C 57.040 29.240
*N chany_bottom_in[0]:19 *C 57.040 29.195
*N chany_bottom_in[0]:20 *C 57.040 28.617
*N chany_bottom_in[0]:21 *C 57.033 28.560
*N chany_bottom_in[0]:22 *C 44.680 46.920
*N chany_bottom_in[0]:23 *C 44.160 66.980
*N chany_bottom_in[0]:24 *C 44.160 67.320
*N chany_bottom_in[0]:25 *C 40.480 66.980
*N chany_bottom_in[0]:26 *C 37.720 66.640
*N chany_bottom_in[0]:27 *C 37.720 66.685
*N chany_bottom_in[0]:28 *C 37.720 67.275
*N chany_bottom_in[0]:29 *C 37.765 67.320
*N chany_bottom_in[0]:30 *C 40.480 67.320
*N chany_bottom_in[0]:31 *C 42.780 67.320
*N chany_bottom_in[0]:32 *C 42.780 67.275
*N chany_bottom_in[0]:33 *C 43.303 56.100
*N chany_bottom_in[0]:34 *C 42.825 56.100
*N chany_bottom_in[0]:35 *C 42.780 56.100
*N chany_bottom_in[0]:36 *C 42.780 56.498
*N chany_bottom_in[0]:37 *C 42.788 56.440
*N chany_bottom_in[0]:38 *C 45.060 56.440
*N chany_bottom_in[0]:39 *C 45.080 56.433
*N chany_bottom_in[0]:40 *C 45.080 46.928
*N chany_bottom_in[0]:41 *C 45.080 46.920
*N chany_bottom_in[0]:42 *C 45.080 46.863
*N chany_bottom_in[0]:43 *C 45.602 41.820
*N chany_bottom_in[0]:44 *C 45.125 41.820
*N chany_bottom_in[0]:45 *C 45.080 41.820
*N chany_bottom_in[0]:46 *C 45.080 36.380
*N chany_bottom_in[0]:47 *C 45.080 36.425
*N chany_bottom_in[0]:48 *C 44.620 36.380
*N chany_bottom_in[0]:49 *C 44.620 34.340
*N chany_bottom_in[0]:50 *C 44.620 34.340
*N chany_bottom_in[0]:51 *C 44.620 28.617
*N chany_bottom_in[0]:52 *C 44.628 28.560
*N chany_bottom_in[0]:53 *C 49.220 28.560
*N chany_bottom_in[0]:54 *C 49.220 28.503
*N chany_bottom_in[0]:55 *C 49.220 18.065
*N chany_bottom_in[0]:56 *C 49.220 18.020
*N chany_bottom_in[0]:57 *C 47.885 18.020
*N chany_bottom_in[0]:58 *C 47.840 18.020
*N chany_bottom_in[0]:59 *C 47.840 18.020
*N chany_bottom_in[0]:60 *C 47.840 18.012
*N chany_bottom_in[0]:61 *C 47.840 5.448
*N chany_bottom_in[0]:62 *C 47.855 5.440
*N chany_bottom_in[0]:63 *C 48.297 5.440
*N chany_bottom_in[0]:64 *C 48.300 5.440

*CAP
0 chany_bottom_in[0] 0.0002351349
1 mux_right_ipin_9\/mux_l1_in_0_:A1 1e-06
2 mux_right_ipin_15\/mux_l1_in_0_:A1 1e-06
3 mux_right_ipin_7\/mux_l1_in_0_:A1 1e-06
4 mux_left_ipin_0\/mux_l1_in_0_:A1 1e-06
5 BUFT_RR_77:A 1e-06
6 mux_right_ipin_1\/mux_l1_in_0_:A1 1e-06
7 mux_right_ipin_3\/mux_l1_in_0_:A1 1e-06
8 mux_right_ipin_11\/mux_l1_in_0_:A1 1e-06
9 mux_right_ipin_5\/mux_l1_in_0_:A1 1e-06
10 mux_right_ipin_13\/mux_l1_in_0_:A1 1e-06
11 chany_bottom_in[0]:11 0.0001156926
12 chany_bottom_in[0]:12 0.0001457696
13 chany_bottom_in[0]:13 6.555603e-05
14 chany_bottom_in[0]:14 9.305529e-05
15 chany_bottom_in[0]:15 7.403574e-05
16 chany_bottom_in[0]:16 0.000181941
17 chany_bottom_in[0]:17 6.732324e-05
18 chany_bottom_in[0]:18 7.201326e-05
19 chany_bottom_in[0]:19 6.836284e-05
20 chany_bottom_in[0]:20 6.836284e-05
21 chany_bottom_in[0]:21 0.0006557545
22 chany_bottom_in[0]:22 5.655279e-05
23 chany_bottom_in[0]:23 5.718132e-05
24 chany_bottom_in[0]:24 0.0001374135
25 chany_bottom_in[0]:25 5.804982e-05
26 chany_bottom_in[0]:26 3.815393e-05
27 chany_bottom_in[0]:27 6.274107e-05
28 chany_bottom_in[0]:28 6.274107e-05
29 chany_bottom_in[0]:29 0.0001972974
30 chany_bottom_in[0]:30 0.0003993609
31 chany_bottom_in[0]:31 0.0003139916
32 chany_bottom_in[0]:32 0.0005900725
33 chany_bottom_in[0]:33 5.834097e-05
34 chany_bottom_in[0]:34 5.834097e-05
35 chany_bottom_in[0]:35 5.364641e-05
36 chany_bottom_in[0]:36 0.0006089542
37 chany_bottom_in[0]:37 0.0002279753
38 chany_bottom_in[0]:38 0.0002279753
39 chany_bottom_in[0]:39 0.0003139089
40 chany_bottom_in[0]:40 0.0003139089
41 chany_bottom_in[0]:41 5.655279e-05
42 chany_bottom_in[0]:42 0.0001896078
43 chany_bottom_in[0]:43 5.400553e-05
44 chany_bottom_in[0]:44 5.400553e-05
45 chany_bottom_in[0]:45 0.0004466572
46 chany_bottom_in[0]:46 3.669804e-05
47 chany_bottom_in[0]:47 0.0002360998
48 chany_bottom_in[0]:48 0.0001384309
49 chany_bottom_in[0]:49 3.289878e-05
50 chany_bottom_in[0]:50 0.0004458966
51 chany_bottom_in[0]:51 0.0002922362
52 chany_bottom_in[0]:52 0.0003628297
53 chany_bottom_in[0]:53 0.001018584
54 chany_bottom_in[0]:54 0.0005268616
55 chany_bottom_in[0]:55 0.0005268616
56 chany_bottom_in[0]:56 0.0003471767
57 chany_bottom_in[0]:57 0.0001235316
58 chany_bottom_in[0]:58 3.643199e-05
59 chany_bottom_in[0]:59 7.403574e-05
60 chany_bottom_in[0]:60 0.0006113478
61 chany_bottom_in[0]:61 0.0006113478
62 chany_bottom_in[0]:62 5.6562e-05
63 chany_bottom_in[0]:63 5.6562e-05
64 chany_bottom_in[0]:64 0.0003661666
65 chany_bottom_in[0] chany_bottom_in[2] 5.507636e-06
66 chany_bottom_in[0]:14 chany_bottom_in[2]:61 5.482732e-06
67 chany_bottom_in[0]:51 chany_bottom_in[2]:56 7.084661e-05
68 chany_bottom_in[0]:52 chany_bottom_in[2]:50 6.102147e-06
69 chany_bottom_in[0]:53 chany_bottom_in[2]:49 6.187194e-06
70 chany_bottom_in[0]:32 chany_bottom_in[2]:28 1.41252e-05
71 chany_bottom_in[0]:21 chany_bottom_in[2]:15 8.504735e-08
72 chany_bottom_in[0]:45 chany_bottom_in[2]:41 7.959518e-05
73 chany_bottom_in[0]:45 chany_bottom_in[2]:36 2.233606e-05
74 chany_bottom_in[0]:45 chany_bottom_in[2]:37 5.798875e-05
75 chany_bottom_in[0]:47 chany_bottom_in[2]:40 2.126218e-05
76 chany_bottom_in[0]:47 chany_bottom_in[2]:41 5.798875e-05
77 chany_bottom_in[0]:47 chany_bottom_in[2]:43 1.012618e-05
78 chany_bottom_in[0]:50 chany_bottom_in[2]:51 7.084661e-05
79 chany_bottom_in[0]:42 chany_bottom_in[2]:33 2.233606e-05
80 chany_bottom_in[0]:42 chany_bottom_in[2]:37 5.8333e-05
81 chany_bottom_in[0]:36 chany_bottom_in[2]:33 1.608693e-05
82 chany_bottom_in[0]:35 chany_bottom_in[2]:28 1.961734e-06
83 chany_bottom_in[0]:64 chany_bottom_in[2] 5.482732e-06
84 chany_bottom_in[0]:64 chany_bottom_in[2]:61 5.507636e-06
85 chany_bottom_in[0]:48 chany_bottom_in[2]:42 1.012618e-05
86 chany_bottom_in[0]:55 chany_bottom_in[4]:29 1.470116e-06
87 chany_bottom_in[0]:54 chany_bottom_in[4]:28 1.470116e-06
88 chany_bottom_in[0]:45 chany_bottom_in[4]:19 7.597511e-05
89 chany_bottom_in[0]:42 chany_bottom_in[4]:18 7.597511e-05
90 chany_bottom_in[0]:40 chany_bottom_in[4]:13 0.0001818241
91 chany_bottom_in[0]:39 chany_bottom_in[4]:12 0.0001818241
92 chany_bottom_in[0]:41 chany_bottom_in[12]:22 4.993858e-05
93 chany_bottom_in[0]:40 chany_bottom_in[12]:21 0.0004002486
94 chany_bottom_in[0]:39 chany_bottom_in[12]:20 0.0004002486
95 chany_bottom_in[0]:22 chany_bottom_in[12]:27 4.993858e-05
96 chany_bottom_in[0]:55 chany_top_in[10]:23 0.0002184682
97 chany_bottom_in[0]:54 chany_top_in[10]:22 0.0002184682
98 chany_bottom_in[0]:32 chany_top_in[10]:36 7.194404e-06
99 chany_bottom_in[0]:41 chany_top_in[10]:34 3.028231e-07
100 chany_bottom_in[0]:36 chany_top_in[10]:35 7.194404e-06
101 chany_bottom_in[0]:60 chany_top_in[10]:19 0.0001103056
102 chany_bottom_in[0]:60 chany_top_in[10]:26 0.0002592652
103 chany_bottom_in[0]:62 chany_top_in[10]:11 1.19619e-06
104 chany_bottom_in[0]:61 chany_top_in[10]:19 0.0002592652
105 chany_bottom_in[0]:61 chany_top_in[10]:12 0.0001103056
106 chany_bottom_in[0]:63 chany_top_in[10]:5 1.19619e-06
107 chany_bottom_in[0]:22 chany_top_in[10]:33 3.028231e-07
108 chany_bottom_in[0]:32 mux_right_ipin_1/sky130_fd_sc_hd__mux2_1_1_X[0]:4 7.866149e-05
109 chany_bottom_in[0]:36 mux_right_ipin_1/sky130_fd_sc_hd__mux2_1_1_X[0]:5 7.866149e-05
110 chany_bottom_in[0]:45 mux_right_ipin_15/sky130_fd_sc_hd__mux2_1_0_X[0]:5 5.232107e-05
111 chany_bottom_in[0]:47 mux_right_ipin_15/sky130_fd_sc_hd__mux2_1_0_X[0]:6 5.232107e-05
112 chany_bottom_in[0]:47 mux_right_ipin_15/sky130_fd_sc_hd__mux2_1_0_X[0]:4 7.598057e-06
113 chany_bottom_in[0]:48 mux_right_ipin_15/sky130_fd_sc_hd__mux2_1_0_X[0]:3 7.598057e-06

*RES
0 chany_bottom_in[0] chany_bottom_in[0]:64 0.003705357
1 chany_bottom_in[0]:11 mux_right_ipin_13\/mux_l1_in_0_:A1 0.152
2 chany_bottom_in[0]:13 chany_bottom_in[0]:12 0.0003035715
3 chany_bottom_in[0]:14 chany_bottom_in[0]:13 0.0045
4 chany_bottom_in[0]:51 chany_bottom_in[0]:50 0.005109375
5 chany_bottom_in[0]:52 chany_bottom_in[0]:51 0.00341
6 chany_bottom_in[0]:56 chany_bottom_in[0]:55 0.0045
7 chany_bottom_in[0]:56 chany_bottom_in[0]:16 0.002020089
8 chany_bottom_in[0]:55 chany_bottom_in[0]:54 0.009319197
9 chany_bottom_in[0]:54 chany_bottom_in[0]:53 0.00341
10 chany_bottom_in[0]:53 chany_bottom_in[0]:52 0.0007194917
11 chany_bottom_in[0]:53 chany_bottom_in[0]:21 0.001223958
12 chany_bottom_in[0]:31 chany_bottom_in[0]:30 0.002053572
13 chany_bottom_in[0]:31 chany_bottom_in[0]:24 0.001232143
14 chany_bottom_in[0]:32 chany_bottom_in[0]:31 0.0045
15 chany_bottom_in[0]:20 chany_bottom_in[0]:19 0.000515625
16 chany_bottom_in[0]:21 chany_bottom_in[0]:20 0.00341
17 chany_bottom_in[0]:18 chany_bottom_in[0]:17 0.0001465517
18 chany_bottom_in[0]:19 chany_bottom_in[0]:18 0.0045
19 chany_bottom_in[0]:17 mux_right_ipin_11\/mux_l1_in_0_:A1 0.152
20 chany_bottom_in[0]:29 chany_bottom_in[0]:28 0.0045
21 chany_bottom_in[0]:28 chany_bottom_in[0]:27 0.0005267857
22 chany_bottom_in[0]:26 BUFT_RR_77:A 0.152
23 chany_bottom_in[0]:27 chany_bottom_in[0]:26 0.0045
24 chany_bottom_in[0]:23 mux_right_ipin_3\/mux_l1_in_0_:A1 0.152
25 chany_bottom_in[0]:44 chany_bottom_in[0]:43 0.0004263393
26 chany_bottom_in[0]:45 chany_bottom_in[0]:44 0.0045
27 chany_bottom_in[0]:45 chany_bottom_in[0]:42 0.004502232
28 chany_bottom_in[0]:43 mux_right_ipin_7\/mux_l1_in_0_:A1 0.152
29 chany_bottom_in[0]:46 mux_right_ipin_15\/mux_l1_in_0_:A1 0.152
30 chany_bottom_in[0]:47 chany_bottom_in[0]:46 0.0045
31 chany_bottom_in[0]:47 chany_bottom_in[0]:45 0.004816964
32 chany_bottom_in[0]:25 mux_right_ipin_1\/mux_l1_in_0_:A1 0.152
33 chany_bottom_in[0]:49 mux_right_ipin_9\/mux_l1_in_0_:A1 0.152
34 chany_bottom_in[0]:50 chany_bottom_in[0]:49 0.0045
35 chany_bottom_in[0]:50 chany_bottom_in[0]:48 0.001821429
36 chany_bottom_in[0]:42 chany_bottom_in[0]:41 0.00341
37 chany_bottom_in[0]:41 chany_bottom_in[0]:40 0.00341
38 chany_bottom_in[0]:41 chany_bottom_in[0]:22 5.69697e-05
39 chany_bottom_in[0]:40 chany_bottom_in[0]:39 0.001489117
40 chany_bottom_in[0]:38 chany_bottom_in[0]:37 0.000356025
41 chany_bottom_in[0]:39 chany_bottom_in[0]:38 0.00341
42 chany_bottom_in[0]:36 chany_bottom_in[0]:35 0.0001911057
43 chany_bottom_in[0]:36 chany_bottom_in[0]:32 0.009622768
44 chany_bottom_in[0]:37 chany_bottom_in[0]:36 0.00341
45 chany_bottom_in[0]:16 mux_right_ipin_5\/mux_l1_in_0_:A1 0.152
46 chany_bottom_in[0]:34 chany_bottom_in[0]:33 0.0004263393
47 chany_bottom_in[0]:35 chany_bottom_in[0]:34 0.0045
48 chany_bottom_in[0]:33 mux_left_ipin_0\/mux_l1_in_0_:A1 0.152
49 chany_bottom_in[0]:57 chany_bottom_in[0]:56 0.001191964
50 chany_bottom_in[0]:58 chany_bottom_in[0]:57 0.0045
51 chany_bottom_in[0]:59 chany_bottom_in[0]:58 0.00341
52 chany_bottom_in[0]:59 chany_bottom_in[0]:15 5.69697e-05
53 chany_bottom_in[0]:60 chany_bottom_in[0]:59 0.00341
54 chany_bottom_in[0]:62 chany_bottom_in[0]:61 0.00341
55 chany_bottom_in[0]:61 chany_bottom_in[0]:60 0.001968517
56 chany_bottom_in[0]:64 chany_bottom_in[0]:63 0.00341
57 chany_bottom_in[0]:64 chany_bottom_in[0]:14 0.001174107
58 chany_bottom_in[0]:63 chany_bottom_in[0]:62 6.499218e-05
59 chany_bottom_in[0]:30 chany_bottom_in[0]:29 0.002424107
60 chany_bottom_in[0]:30 chany_bottom_in[0]:25 0.0003035715
61 chany_bottom_in[0]:24 chany_bottom_in[0]:23 0.0003035714
62 chany_bottom_in[0]:12 chany_bottom_in[0]:11 0.001198661
63 chany_bottom_in[0]:48 chany_bottom_in[0]:47 0.0004107143

*END

*D_NET chany_bottom_out[19] 0.001295862 //LENGTH 9.060 LUMPCC 0 DR

*CONN
*I FTB_40__39:X O *L 0 *C 18.255 6.120
*P chany_bottom_out[19] O *L 0.7423 *C 21.160 0.680
*N chany_bottom_out[19]:2 *C 20.700 0.680
*N chany_bottom_out[19]:3 *C 20.700 6.120
*N chany_bottom_out[19]:4 *C 20.240 6.120
*N chany_bottom_out[19]:5 *C 20.195 6.120
*N chany_bottom_out[19]:6 *C 18.293 6.120

*CAP
0 FTB_40__39:X 1e-06
1 chany_bottom_out[19] 3.321834e-05
2 chany_bottom_out[19]:2 0.0004065062
3 chany_bottom_out[19]:3 0.00040806
4 chany_bottom_out[19]:4 6.785456e-05
5 chany_bottom_out[19]:5 0.0001896114
6 chany_bottom_out[19]:6 0.0001896114

*RES
0 FTB_40__39:X chany_bottom_out[19]:6 0.152
1 chany_bottom_out[19]:5 chany_bottom_out[19]:4 0.0045
2 chany_bottom_out[19]:4 chany_bottom_out[19]:3 0.0004107143
3 chany_bottom_out[19]:6 chany_bottom_out[19]:5 0.001698661
4 chany_bottom_out[19]:3 chany_bottom_out[19]:2 0.004857143
5 chany_bottom_out[19]:2 chany_bottom_out[19] 0.0004107143

*END

*D_NET chany_bottom_out[10] 0.002355708 //LENGTH 16.415 LUMPCC 0 DR

*CONN
*I BUFT_P_94:X O *L 0 *C 41.860 8.840
*P chany_bottom_out[10] O *L 0.7423 *C 34.960 1.285
*N chany_bottom_out[10]:2 *C 34.960 2.033
*N chany_bottom_out[10]:3 *C 34.980 2.040
*N chany_bottom_out[10]:4 *C 40.013 2.040
*N chany_bottom_out[10]:5 *C 40.020 2.098
*N chany_bottom_out[10]:6 *C 40.020 9.135
*N chany_bottom_out[10]:7 *C 40.065 9.180
*N chany_bottom_out[10]:8 *C 41.860 9.180
*N chany_bottom_out[10]:9 *C 41.860 8.840

*CAP
0 BUFT_P_94:X 1e-06
1 chany_bottom_out[10] 7.544113e-05
2 chany_bottom_out[10]:2 7.544113e-05
3 chany_bottom_out[10]:3 0.0004887733
4 chany_bottom_out[10]:4 0.0004887733
5 chany_bottom_out[10]:5 0.0004292955
6 chany_bottom_out[10]:6 0.0004292955
7 chany_bottom_out[10]:7 0.0001368974
8 chany_bottom_out[10]:8 0.0001678473
9 chany_bottom_out[10]:9 6.294322e-05

*RES
0 BUFT_P_94:X chany_bottom_out[10]:9 0.152
1 chany_bottom_out[10]:3 chany_bottom_out[10]:2 0.00341
2 chany_bottom_out[10]:2 chany_bottom_out[10] 0.0001171083
3 chany_bottom_out[10]:5 chany_bottom_out[10]:4 0.00341
4 chany_bottom_out[10]:4 chany_bottom_out[10]:3 0.0007884249
5 chany_bottom_out[10]:7 chany_bottom_out[10]:6 0.0045
6 chany_bottom_out[10]:6 chany_bottom_out[10]:5 0.006283483
7 chany_bottom_out[10]:9 chany_bottom_out[10]:8 0.0003035714
8 chany_bottom_out[10]:8 chany_bottom_out[10]:7 0.001602679

*END

*D_NET chany_bottom_in[1] 0.01292549 //LENGTH 98.425 LUMPCC 0.001114533 DR

*CONN
*P chany_bottom_in[1] I *L 0.29796 *C 22.080 1.325
*I mux_right_ipin_6\/mux_l1_in_0_:A1 I *L 0.00198 *C 20.605 14.620
*I mux_right_ipin_10\/mux_l1_in_0_:A1 I *L 0.00198 *C 18.960 23.460
*I mux_right_ipin_14\/mux_l1_in_0_:A1 I *L 0.00198 *C 17.385 28.900
*I mux_right_ipin_8\/mux_l1_in_0_:A1 I *L 0.00198 *C 20.145 45.220
*I mux_right_ipin_0\/mux_l1_in_0_:A1 I *L 0.00198 *C 18.305 56.100
*I mux_right_ipin_2\/mux_l1_in_0_:A1 I *L 0.00198 *C 23.100 63.580
*I FTB_2__1:A I *L 0.001743 *C 16.560 69.360
*I mux_right_ipin_4\/mux_l1_in_0_:A1 I *L 0.00198 *C 20.700 47.260
*I mux_right_ipin_12\/mux_l1_in_0_:A1 I *L 0.00198 *C 20.605 7.140
*N chany_bottom_in[1]:10 *C 20.568 7.140
*N chany_bottom_in[1]:11 *C 20.700 47.260
*N chany_bottom_in[1]:12 *C 16.560 69.360
*N chany_bottom_in[1]:13 *C 16.560 69.700
*N chany_bottom_in[1]:14 *C 20.195 69.700
*N chany_bottom_in[1]:15 *C 20.240 69.655
*N chany_bottom_in[1]:16 *C 23.062 63.580
*N chany_bottom_in[1]:17 *C 22.585 63.580
*N chany_bottom_in[1]:18 *C 22.540 63.580
*N chany_bottom_in[1]:19 *C 22.540 63.920
*N chany_bottom_in[1]:20 *C 22.533 63.920
*N chany_bottom_in[1]:21 *C 20.248 63.920
*N chany_bottom_in[1]:22 *C 20.240 63.920
*N chany_bottom_in[1]:23 *C 20.700 63.920
*N chany_bottom_in[1]:24 *C 18.305 56.100
*N chany_bottom_in[1]:25 *C 18.400 56.440
*N chany_bottom_in[1]:26 *C 20.655 56.440
*N chany_bottom_in[1]:27 *C 20.700 56.440
*N chany_bottom_in[1]:28 *C 20.183 45.220
*N chany_bottom_in[1]:29 *C 20.655 45.220
*N chany_bottom_in[1]:30 *C 20.700 45.265
*N chany_bottom_in[1]:31 *C 20.700 46.920
*N chany_bottom_in[1]:32 *C 20.700 46.920
*N chany_bottom_in[1]:33 *C 17.525 46.920
*N chany_bottom_in[1]:34 *C 17.480 46.875
*N chany_bottom_in[1]:35 *C 17.385 28.900
*N chany_bottom_in[1]:36 *C 17.480 28.900
*N chany_bottom_in[1]:37 *C 18.922 23.460
*N chany_bottom_in[1]:38 *C 17.525 23.460
*N chany_bottom_in[1]:39 *C 17.480 23.460
*N chany_bottom_in[1]:40 *C 17.480 17.045
*N chany_bottom_in[1]:41 *C 17.525 17.000
*N chany_bottom_in[1]:42 *C 19.735 17.000
*N chany_bottom_in[1]:43 *C 19.780 16.955
*N chany_bottom_in[1]:44 *C 20.568 14.620
*N chany_bottom_in[1]:45 *C 20.240 14.620
*N chany_bottom_in[1]:46 *C 20.240 14.960
*N chany_bottom_in[1]:47 *C 19.825 14.960
*N chany_bottom_in[1]:48 *C 19.780 14.960
*N chany_bottom_in[1]:49 *C 19.780 7.185
*N chany_bottom_in[1]:50 *C 19.780 7.140
*N chany_bottom_in[1]:51 *C 19.780 6.460
*N chany_bottom_in[1]:52 *C 22.035 6.460
*N chany_bottom_in[1]:53 *C 22.080 6.415

*CAP
0 chany_bottom_in[1] 0.0003099347
1 mux_right_ipin_6\/mux_l1_in_0_:A1 1e-06
2 mux_right_ipin_10\/mux_l1_in_0_:A1 1e-06
3 mux_right_ipin_14\/mux_l1_in_0_:A1 1e-06
4 mux_right_ipin_8\/mux_l1_in_0_:A1 1e-06
5 mux_right_ipin_0\/mux_l1_in_0_:A1 1e-06
6 mux_right_ipin_2\/mux_l1_in_0_:A1 1e-06
7 FTB_2__1:A 1e-06
8 mux_right_ipin_4\/mux_l1_in_0_:A1 1e-06
9 mux_right_ipin_12\/mux_l1_in_0_:A1 1e-06
10 chany_bottom_in[1]:10 7.87229e-05
11 chany_bottom_in[1]:11 6.801559e-05
12 chany_bottom_in[1]:12 6.774027e-05
13 chany_bottom_in[1]:13 0.0002562388
14 chany_bottom_in[1]:14 0.0002236397
15 chany_bottom_in[1]:15 0.0003332093
16 chany_bottom_in[1]:16 7.7156e-05
17 chany_bottom_in[1]:17 7.7156e-05
18 chany_bottom_in[1]:18 4.965352e-05
19 chany_bottom_in[1]:19 5.594628e-05
20 chany_bottom_in[1]:20 0.000248643
21 chany_bottom_in[1]:21 0.000248643
22 chany_bottom_in[1]:22 0.0003677107
23 chany_bottom_in[1]:23 0.0004080174
24 chany_bottom_in[1]:24 5.718723e-05
25 chany_bottom_in[1]:25 0.0002083718
26 chany_bottom_in[1]:26 0.0001803816
27 chany_bottom_in[1]:27 0.0008753808
28 chany_bottom_in[1]:28 5.261382e-05
29 chany_bottom_in[1]:29 5.261382e-05
30 chany_bottom_in[1]:30 9.342062e-05
31 chany_bottom_in[1]:31 0.0005981056
32 chany_bottom_in[1]:32 0.0002848641
33 chany_bottom_in[1]:33 0.0002467883
34 chany_bottom_in[1]:34 0.001034026
35 chany_bottom_in[1]:35 2.925782e-05
36 chany_bottom_in[1]:36 0.001343483
37 chany_bottom_in[1]:37 0.0001313428
38 chany_bottom_in[1]:38 0.0001313428
39 chany_bottom_in[1]:39 0.0006904776
40 chany_bottom_in[1]:40 0.0003849107
41 chany_bottom_in[1]:41 0.0001826649
42 chany_bottom_in[1]:42 0.0001826649
43 chany_bottom_in[1]:43 0.0001135868
44 chany_bottom_in[1]:44 4.251868e-05
45 chany_bottom_in[1]:45 7.075815e-05
46 chany_bottom_in[1]:46 5.973932e-05
47 chany_bottom_in[1]:47 3.149986e-05
48 chany_bottom_in[1]:48 0.0005926234
49 chany_bottom_in[1]:49 0.0004447542
50 chany_bottom_in[1]:50 0.0001280264
51 chany_bottom_in[1]:51 0.000213746
52 chany_bottom_in[1]:52 0.0001644424
53 chany_bottom_in[1]:53 0.0003099347
54 chany_bottom_in[1] chany_top_in[1]:12 1.685176e-05
55 chany_bottom_in[1]:32 chany_top_in[1]:39 7.22229e-08
56 chany_bottom_in[1]:32 chany_top_in[1]:38 5.712174e-07
57 chany_bottom_in[1]:31 chany_top_in[1]:43 9.077795e-05
58 chany_bottom_in[1]:31 chany_top_in[1]:40 1.239302e-05
59 chany_bottom_in[1]:31 chany_top_in[1]:46 1.450537e-05
60 chany_bottom_in[1]:49 chany_top_in[1]:12 2.391201e-06
61 chany_bottom_in[1]:49 chany_top_in[1]:14 9.862607e-06
62 chany_bottom_in[1]:33 chany_top_in[1]:37 5.712174e-07
63 chany_bottom_in[1]:33 chany_top_in[1]:38 7.22229e-08
64 chany_bottom_in[1]:34 chany_top_in[1]:36 0.0001457281
65 chany_bottom_in[1]:34 chany_top_in[1]:32 6.521005e-06
66 chany_bottom_in[1]:15 chany_top_in[1]:53 2.414514e-06
67 chany_bottom_in[1]:15 chany_top_in[1]:49 2.540082e-06
68 chany_bottom_in[1]:43 chany_top_in[1]:15 2.669131e-07
69 chany_bottom_in[1]:43 chany_top_in[1]:23 1.508247e-05
70 chany_bottom_in[1]:40 chany_top_in[1]:20 1.902238e-07
71 chany_bottom_in[1]:40 chany_top_in[1]:23 3.404005e-07
72 chany_bottom_in[1]:47 chany_top_in[1]:18 2.448176e-05
73 chany_bottom_in[1]:48 chany_top_in[1]:20 1.508247e-05
74 chany_bottom_in[1]:48 chany_top_in[1]:15 9.862607e-06
75 chany_bottom_in[1]:48 chany_top_in[1]:14 2.658114e-06
76 chany_bottom_in[1]:44 chany_top_in[1]:17 3.512186e-06
77 chany_bottom_in[1]:36 chany_top_in[1]:35 0.0001457281
78 chany_bottom_in[1]:36 chany_top_in[1]:32 1.086834e-06
79 chany_bottom_in[1]:36 chany_top_in[1]:29 1.27307e-05
80 chany_bottom_in[1]:36 chany_top_in[1]:30 3.516501e-06
81 chany_bottom_in[1]:36 chany_top_in[1]:31 6.521005e-06
82 chany_bottom_in[1]:36 chany_top_in[1]:24 5.449664e-06
83 chany_bottom_in[1]:22 chany_top_in[1]:52 2.414514e-06
84 chany_bottom_in[1]:22 chany_top_in[1]:48 2.540082e-06
85 chany_bottom_in[1]:19 chany_top_in[1]:48 8.308861e-06
86 chany_bottom_in[1]:18 chany_top_in[1]:49 8.308861e-06
87 chany_bottom_in[1]:27 chany_top_in[1]:43 1.239302e-05
88 chany_bottom_in[1]:27 chany_top_in[1]:46 8.908065e-05
89 chany_bottom_in[1]:27 chany_top_in[1]:47 1.450537e-05
90 chany_bottom_in[1]:27 chany_top_in[1]:48 3.441693e-05
91 chany_bottom_in[1]:29 chany_top_in[1]:39 1.755567e-06
92 chany_bottom_in[1]:29 chany_top_in[1]:38 2.819547e-06
93 chany_bottom_in[1]:30 chany_top_in[1]:40 1.694927e-05
94 chany_bottom_in[1]:28 chany_top_in[1]:37 2.819547e-06
95 chany_bottom_in[1]:28 chany_top_in[1]:38 1.755567e-06
96 chany_bottom_in[1]:38 chany_top_in[1]:21 4.14427e-06
97 chany_bottom_in[1]:39 chany_top_in[1]:28 1.27307e-05
98 chany_bottom_in[1]:39 chany_top_in[1]:23 5.639888e-06
99 chany_bottom_in[1]:39 chany_top_in[1]:31 1.086834e-06
100 chany_bottom_in[1]:39 chany_top_in[1]:25 3.516501e-06
101 chany_bottom_in[1]:39 chany_top_in[1]:24 3.404005e-07
102 chany_bottom_in[1]:37 chany_top_in[1]:22 4.14427e-06
103 chany_bottom_in[1]:52 chany_top_in[1]:11 2.02099e-05
104 chany_bottom_in[1]:53 chany_top_in[1]:14 1.685176e-05
105 chany_bottom_in[1]:51 chany_top_in[1]:10 2.02099e-05
106 chany_bottom_in[1]:46 chany_top_in[1]:17 2.448176e-05
107 chany_bottom_in[1]:45 chany_top_in[1]:18 3.512186e-06
108 chany_bottom_in[1]:23 chany_top_in[1]:47 1.525197e-05
109 chany_bottom_in[1]:23 chany_top_in[1]:49 3.441693e-05
110 chany_bottom_in[1]:14 mux_right_ipin_2/sky130_fd_sc_hd__mux2_1_6_X[0]:3 9.907281e-05
111 chany_bottom_in[1]:13 mux_right_ipin_2/sky130_fd_sc_hd__mux2_1_6_X[0]:2 9.907281e-05

*RES
0 chany_bottom_in[1] chany_bottom_in[1]:53 0.004544643
1 chany_bottom_in[1]:32 chany_bottom_in[1]:31 0.0045
2 chany_bottom_in[1]:32 chany_bottom_in[1]:11 0.0001465517
3 chany_bottom_in[1]:31 chany_bottom_in[1]:30 0.001477679
4 chany_bottom_in[1]:31 chany_bottom_in[1]:27 0.0085
5 chany_bottom_in[1]:50 chany_bottom_in[1]:49 0.0045
6 chany_bottom_in[1]:50 chany_bottom_in[1]:10 0.000703125
7 chany_bottom_in[1]:49 chany_bottom_in[1]:48 0.006941964
8 chany_bottom_in[1]:33 chany_bottom_in[1]:32 0.002834822
9 chany_bottom_in[1]:34 chany_bottom_in[1]:33 0.0045
10 chany_bottom_in[1]:14 chany_bottom_in[1]:13 0.003245536
11 chany_bottom_in[1]:15 chany_bottom_in[1]:14 0.0045
12 chany_bottom_in[1]:12 FTB_2__1:A 0.152
13 chany_bottom_in[1]:42 chany_bottom_in[1]:41 0.001973215
14 chany_bottom_in[1]:43 chany_bottom_in[1]:42 0.0045
15 chany_bottom_in[1]:41 chany_bottom_in[1]:40 0.0045
16 chany_bottom_in[1]:40 chany_bottom_in[1]:39 0.005727679
17 chany_bottom_in[1]:10 mux_right_ipin_12\/mux_l1_in_0_:A1 0.152
18 chany_bottom_in[1]:47 chany_bottom_in[1]:46 0.0003705357
19 chany_bottom_in[1]:48 chany_bottom_in[1]:47 0.0045
20 chany_bottom_in[1]:48 chany_bottom_in[1]:43 0.00178125
21 chany_bottom_in[1]:44 mux_right_ipin_6\/mux_l1_in_0_:A1 0.152
22 chany_bottom_in[1]:11 mux_right_ipin_4\/mux_l1_in_0_:A1 0.152
23 chany_bottom_in[1]:35 mux_right_ipin_14\/mux_l1_in_0_:A1 0.152
24 chany_bottom_in[1]:36 chany_bottom_in[1]:35 0.0045
25 chany_bottom_in[1]:36 chany_bottom_in[1]:34 0.01604911
26 chany_bottom_in[1]:22 chany_bottom_in[1]:21 0.00341
27 chany_bottom_in[1]:22 chany_bottom_in[1]:15 0.005120536
28 chany_bottom_in[1]:21 chany_bottom_in[1]:20 0.0003579833
29 chany_bottom_in[1]:19 chany_bottom_in[1]:18 0.0001634615
30 chany_bottom_in[1]:20 chany_bottom_in[1]:19 0.00341
31 chany_bottom_in[1]:17 chany_bottom_in[1]:16 0.0004263393
32 chany_bottom_in[1]:18 chany_bottom_in[1]:17 0.0045
33 chany_bottom_in[1]:16 mux_right_ipin_2\/mux_l1_in_0_:A1 0.152
34 chany_bottom_in[1]:26 chany_bottom_in[1]:25 0.002013393
35 chany_bottom_in[1]:27 chany_bottom_in[1]:26 0.0045
36 chany_bottom_in[1]:27 chany_bottom_in[1]:23 0.006678571
37 chany_bottom_in[1]:24 mux_right_ipin_0\/mux_l1_in_0_:A1 0.152
38 chany_bottom_in[1]:29 chany_bottom_in[1]:28 0.000421875
39 chany_bottom_in[1]:30 chany_bottom_in[1]:29 0.0045
40 chany_bottom_in[1]:28 mux_right_ipin_8\/mux_l1_in_0_:A1 0.152
41 chany_bottom_in[1]:38 chany_bottom_in[1]:37 0.001247768
42 chany_bottom_in[1]:39 chany_bottom_in[1]:38 0.0045
43 chany_bottom_in[1]:39 chany_bottom_in[1]:36 0.004857143
44 chany_bottom_in[1]:37 mux_right_ipin_10\/mux_l1_in_0_:A1 0.152
45 chany_bottom_in[1]:52 chany_bottom_in[1]:51 0.002013393
46 chany_bottom_in[1]:53 chany_bottom_in[1]:52 0.0045
47 chany_bottom_in[1]:13 chany_bottom_in[1]:12 0.0003035715
48 chany_bottom_in[1]:25 chany_bottom_in[1]:24 0.0003035715
49 chany_bottom_in[1]:51 chany_bottom_in[1]:50 0.0006071429
50 chany_bottom_in[1]:46 chany_bottom_in[1]:45 0.0003035715
51 chany_bottom_in[1]:45 chany_bottom_in[1]:44 0.0002924107
52 chany_bottom_in[1]:23 chany_bottom_in[1]:22 0.0004107143

*END

*D_NET mux_right_ipin_12/sky130_fd_sc_hd__mux2_1_6_X[0] 0.000412489 //LENGTH 2.475 LUMPCC 0.000259268 DR

*CONN
*I mux_right_ipin_12\/mux_l2_in_3_:X O *L 0 *C 15.815 4.420