*SPEF "1481-1998"
*DESIGN "cby_1__1_"
*DATE "Mon Oct 26 23:03:32 2020"
*
*
*
*
*DIVIDER /
*DELIMITER :
*T_UNIT 1 NS
*C_UNIT 1 PF
*R_UNIT 1 KOHM
*L_UNIT 1 HENRY

// XY_UNIT 1 UM
// PARASITIC_TECH nominal at 25.000 degree

*PORTS
prog_clk[0] I *C 0.690 89.760
chany_bottom_in[0] I *C 48.300 0.680
chany_bottom_in[1] I *C 32.660 0.680
chany_bottom_in[2] I *C 49.220 0.680
chany_bottom_in[3] I *C 42.780 0.680
chany_bottom_in[4] I *C 70.380 0.680
chany_bottom_in[5] I *C 55.200 0.680
chany_bottom_in[6] I *C 41.860 0.680
chany_bottom_in[7] I *C 21.620 0.680
chany_bottom_in[8] I *C 40.020 0.680
chany_bottom_in[9] I *C 29.900 0.680
chany_bottom_in[10] I *C 68.080 0.680
chany_bottom_in[11] I *C 65.320 0.680
chany_bottom_in[12] I *C 51.060 0.680
chany_bottom_in[13] I *C 35.880 0.680
chany_bottom_in[14] I *C 69.000 0.680
chany_bottom_in[15] I *C 22.540 0.680
chany_bottom_in[16] I *C 58.420 0.680
chany_bottom_in[17] I *C 33.580 0.680
chany_bottom_in[18] I *C 67.160 0.680
chany_bottom_in[19] I *C 50.140 0.680
chany_top_in[0] I *C 54.740 108.120
chany_top_in[1] I *C 31.280 108.120
chany_top_in[2] I *C 23.920 108.120
chany_top_in[3] I *C 40.480 108.120
chany_top_in[4] I *C 68.080 108.120
chany_top_in[5] I *C 43.240 108.120
chany_top_in[6] I *C 46.460 108.120
chany_top_in[7] I *C 32.200 108.120
chany_top_in[8] I *C 34.960 108.120
chany_top_in[9] I *C 25.760 108.120
chany_top_in[10] I *C 64.860 108.120
chany_top_in[11] I *C 45.540 108.120
chany_top_in[12] I *C 51.980 108.120
chany_top_in[13] I *C 33.120 108.120
chany_top_in[14] I *C 69.000 108.120
chany_top_in[15] I *C 26.680 108.120
chany_top_in[16] I *C 35.880 108.120
chany_top_in[17] I *C 30.360 108.120
chany_top_in[18] I *C 44.620 108.120
chany_top_in[19] I *C 42.320 108.120
ccff_head[0] I *C 0.690 13.600
chany_bottom_out[0] O *C 51.980 0.680
chany_bottom_out[1] O *C 28.980 0.680
chany_bottom_out[2] O *C 53.820 0.680
chany_bottom_out[3] O *C 45.540 0.680
chany_bottom_out[4] O *C 23.460 0.680
chany_bottom_out[5] O *C 31.740 0.680
chany_bottom_out[6] O *C 46.460 0.680
chany_bottom_out[7] O *C 38.180 0.680
chany_bottom_out[8] O *C 43.700 0.680
chany_bottom_out[9] O *C 39.100 0.680
chany_bottom_out[10] O *C 44.620 0.680
chany_bottom_out[11] O *C 47.380 0.680
chany_bottom_out[12] O *C 24.380 0.680
chany_bottom_out[13] O *C 34.960 0.680
chany_bottom_out[14] O *C 26.220 0.680
chany_bottom_out[15] O *C 25.300 0.680
chany_bottom_out[16] O *C 40.940 0.680
chany_bottom_out[17] O *C 52.900 0.680
chany_bottom_out[18] O *C 56.120 0.680
chany_bottom_out[19] O *C 30.820 0.680
chany_top_out[0] O *C 53.820 108.120
chany_top_out[1] O *C 38.640 108.120
chany_top_out[2] O *C 52.900 108.120
chany_top_out[3] O *C 59.800 108.120
chany_top_out[4] O *C 36.800 108.120
chany_top_out[5] O *C 47.380 108.120
chany_top_out[6] O *C 65.780 108.120
chany_top_out[7] O *C 58.880 108.120
chany_top_out[8] O *C 49.220 108.120
chany_top_out[9] O *C 55.660 108.120
chany_top_out[10] O *C 34.040 108.120
chany_top_out[11] O *C 57.960 108.120
chany_top_out[12] O *C 51.060 108.120
chany_top_out[13] O *C 39.560 108.120
chany_top_out[14] O *C 37.720 108.120
chany_top_out[15] O *C 24.840 108.120
chany_top_out[16] O *C 48.300 108.120
chany_top_out[17] O *C 41.400 108.120
chany_top_out[18] O *C 28.980 108.120
chany_top_out[19] O *C 50.140 108.120
right_grid_pin_52_[0] O *C 83.950 78.880
left_grid_pin_0_[0] O *C 0.690 102.000
left_grid_pin_1_[0] O *C 0.690 95.200
left_grid_pin_2_[0] O *C 0.690 97.920
left_grid_pin_3_[0] O *C 0.690 96.560
left_grid_pin_4_[0] O *C 0.690 100.640
left_grid_pin_5_[0] O *C 0.690 103.360
left_grid_pin_6_[0] O *C 0.690 80.240
left_grid_pin_7_[0] O *C 0.690 99.280
left_grid_pin_8_[0] O *C 0.690 76.160
left_grid_pin_9_[0] O *C 0.690 81.600
left_grid_pin_10_[0] O *C 0.690 78.880
left_grid_pin_11_[0] O *C 0.690 77.520
left_grid_pin_12_[0] O *C 0.690 35.360
left_grid_pin_13_[0] O *C 0.690 57.120
left_grid_pin_14_[0] O *C 0.690 55.760
left_grid_pin_15_[0] O *C 0.690 34.000
ccff_tail[0] O *C 83.950 99.280
VDD I *C 42.320 54.400
VSS I *C 42.320 54.400

*D_NET chany_bottom_in[0] 0.02180639 //LENGTH 169.080 LUMPCC 0.004935066 DR

*CONN
*P chany_bottom_in[0] I *L 0.29796 *C 48.300 1.290
*I mux_right_ipin_13\/mux_l1_in_0_:A1 I *L 0.00198 *C 58.785 12.580
*I mux_right_ipin_9\/mux_l1_in_0_:A1 I *L 0.00198 *C 55.760 23.460
*I mux_left_ipin_0\/mux_l1_in_0_:A1 I *L 0.00198 *C 57.500 41.820
*I mux_right_ipin_3\/mux_l1_in_0_:A1 I *L 0.00198 *C 15.180 58.140
*I mux_right_ipin_11\/mux_l1_in_0_:A1 I *L 0.00198 *C 19.225 56.100
*I mux_right_ipin_5\/mux_l1_in_0_:A1 I *L 0.00198 *C 56.945 56.100
*I mux_right_ipin_15\/mux_l1_in_0_:A1 I *L 0.00198 *C 58.060 72.420
*I mux_right_ipin_7\/mux_l1_in_0_:A1 I *L 0.00198 *C 58.520 77.860
*I mux_right_ipin_1\/mux_l1_in_0_:A1 I *L 0.00198 *C 58.420 90.780
*I BUFT_RR_63:A I *L 0.001776 *C 59.800 99.280
*N chany_bottom_in[0]:11 *C 59.800 99.280
*N chany_bottom_in[0]:12 *C 59.800 99.620
*N chany_bottom_in[0]:13 *C 58.005 99.620
*N chany_bottom_in[0]:14 *C 57.960 99.575
*N chany_bottom_in[0]:15 *C 58.383 90.780
*N chany_bottom_in[0]:16 *C 58.005 90.780
*N chany_bottom_in[0]:17 *C 57.960 90.780
*N chany_bottom_in[0]:18 *C 57.960 77.860
*N chany_bottom_in[0]:19 *C 57.545 77.860
*N chany_bottom_in[0]:20 *C 58.483 77.860
*N chany_bottom_in[0]:21 *C 57.500 77.860
*N chany_bottom_in[0]:22 *C 57.500 77.520
*N chany_bottom_in[0]:23 *C 57.500 77.505
*N chany_bottom_in[0]:24 *C 58.023 72.420
*N chany_bottom_in[0]:25 *C 57.545 72.420
*N chany_bottom_in[0]:26 *C 57.500 72.420
*N chany_bottom_in[0]:27 *C 56.983 56.100
*N chany_bottom_in[0]:28 *C 57.455 56.100
*N chany_bottom_in[0]:29 *C 57.500 56.100
*N chany_bottom_in[0]:30 *C 19.225 56.100
*N chany_bottom_in[0]:31 *C 19.320 56.100
*N chany_bottom_in[0]:32 *C 15.218 58.140
*N chany_bottom_in[0]:33 *C 18.815 58.140
*N chany_bottom_in[0]:34 *C 18.860 58.095
*N chany_bottom_in[0]:35 *C 18.860 56.100
*N chany_bottom_in[0]:36 *C 18.860 55.138
*N chany_bottom_in[0]:37 *C 18.867 55.080
*N chany_bottom_in[0]:38 *C 57.492 55.080
*N chany_bottom_in[0]:39 *C 57.500 55.080
*N chany_bottom_in[0]:40 *C 57.500 41.835
*N chany_bottom_in[0]:41 *C 57.500 42.160
*N chany_bottom_in[0]:42 *C 57.500 42.160
*N chany_bottom_in[0]:43 *C 57.500 23.120
*N chany_bottom_in[0]:44 *C 55.797 23.460
*N chany_bottom_in[0]:45 *C 56.580 23.460
*N chany_bottom_in[0]:46 *C 56.580 23.120
*N chany_bottom_in[0]:47 *C 56.580 23.120
*N chany_bottom_in[0]:48 *C 58.748 12.580
*N chany_bottom_in[0]:49 *C 58.420 12.580
*N chany_bottom_in[0]:50 *C 58.420 12.920
*N chany_bottom_in[0]:51 *C 56.625 12.920
*N chany_bottom_in[0]:52 *C 56.580 12.920
*N chany_bottom_in[0]:53 *C 56.580 10.258
*N chany_bottom_in[0]:54 *C 56.573 10.200
*N chany_bottom_in[0]:55 *C 48.308 10.200
*N chany_bottom_in[0]:56 *C 48.300 10.143

*CAP
0 chany_bottom_in[0] 0.0005056849
1 mux_right_ipin_13\/mux_l1_in_0_:A1 1e-06
2 mux_right_ipin_9\/mux_l1_in_0_:A1 1e-06
3 mux_left_ipin_0\/mux_l1_in_0_:A1 1e-06
4 mux_right_ipin_3\/mux_l1_in_0_:A1 1e-06
5 mux_right_ipin_11\/mux_l1_in_0_:A1 1e-06
6 mux_right_ipin_5\/mux_l1_in_0_:A1 1e-06
7 mux_right_ipin_15\/mux_l1_in_0_:A1 1e-06
8 mux_right_ipin_7\/mux_l1_in_0_:A1 1e-06
9 mux_right_ipin_1\/mux_l1_in_0_:A1 1e-06
10 BUFT_RR_63:A 1e-06
11 chany_bottom_in[0]:11 6.330099e-05
12 chany_bottom_in[0]:12 0.0001863141
13 chany_bottom_in[0]:13 0.0001555564
14 chany_bottom_in[0]:14 0.0004174374
15 chany_bottom_in[0]:15 5.301773e-05
16 chany_bottom_in[0]:16 5.301773e-05
17 chany_bottom_in[0]:17 0.0008681499
18 chany_bottom_in[0]:18 0.0004462298
19 chany_bottom_in[0]:19 5.444251e-05
20 chany_bottom_in[0]:20 7.811671e-05
21 chany_bottom_in[0]:21 0.0001068788
22 chany_bottom_in[0]:22 6.2245e-05
23 chany_bottom_in[0]:23 0.0002176436
24 chany_bottom_in[0]:24 5.426933e-05
25 chany_bottom_in[0]:25 5.426933e-05
26 chany_bottom_in[0]:26 0.001005101
27 chany_bottom_in[0]:27 2.917548e-05
28 chany_bottom_in[0]:28 2.917548e-05
29 chany_bottom_in[0]:29 0.0008674806
30 chany_bottom_in[0]:30 3.08915e-05
31 chany_bottom_in[0]:31 6.787021e-05
32 chany_bottom_in[0]:32 0.0002743417
33 chany_bottom_in[0]:33 0.0002743417
34 chany_bottom_in[0]:34 0.0001460777
35 chany_bottom_in[0]:35 0.0002611853
36 chany_bottom_in[0]:36 8.032801e-05
37 chany_bottom_in[0]:37 0.002022219
38 chany_bottom_in[0]:38 0.002022219
39 chany_bottom_in[0]:39 0.0006229813
40 chany_bottom_in[0]:40 3.498832e-05
41 chany_bottom_in[0]:41 6.716205e-05
42 chany_bottom_in[0]:42 0.001390687
43 chany_bottom_in[0]:43 0.0008704148
44 chany_bottom_in[0]:44 7.937862e-05
45 chany_bottom_in[0]:45 0.0001079104
46 chany_bottom_in[0]:46 6.169767e-05
47 chany_bottom_in[0]:47 0.000562122
48 chany_bottom_in[0]:48 2.959454e-05
49 chany_bottom_in[0]:49 5.458789e-05
50 chany_bottom_in[0]:50 0.0001599376
51 chany_bottom_in[0]:51 0.0001349442
52 chany_bottom_in[0]:52 0.0007000229
53 chany_bottom_in[0]:53 0.0001534636
54 chany_bottom_in[0]:54 0.0004193801
55 chany_bottom_in[0]:55 0.0004193801
56 chany_bottom_in[0]:56 0.0005056849
57 chany_bottom_in[0]:14 chany_bottom_in[6]:19 1.678286e-05
58 chany_bottom_in[0]:14 chany_bottom_in[6]:11 2.585415e-05
59 chany_bottom_in[0]:14 chany_bottom_in[6]:15 5.691382e-05
60 chany_bottom_in[0]:38 chany_bottom_in[6]:28 6.456706e-06
61 chany_bottom_in[0]:37 chany_bottom_in[6]:29 6.456706e-06
62 chany_bottom_in[0]:23 chany_bottom_in[6]:19 6.134575e-05
63 chany_bottom_in[0]:23 chany_bottom_in[6]:20 6.606098e-06
64 chany_bottom_in[0]:26 chany_bottom_in[6]:19 9.565434e-05
65 chany_bottom_in[0]:26 chany_bottom_in[6]:20 6.134575e-05
66 chany_bottom_in[0]:17 chany_bottom_in[6]:14 2.585415e-05
67 chany_bottom_in[0]:17 chany_bottom_in[6]:16 5.691382e-05
68 chany_bottom_in[0]:17 chany_bottom_in[6]:19 7.12439e-05
69 chany_bottom_in[0]:17 chany_bottom_in[6]:20 1.678286e-05
70 chany_bottom_in[0]:29 chany_bottom_in[6]:20 9.565434e-05
71 chany_bottom_in[0]:19 chany_bottom_in[6]:19 6.606098e-06
72 chany_bottom_in[0]:18 chany_bottom_in[6]:20 7.12439e-05
73 chany_bottom_in[0]:39 chany_bottom_in[16]:43 8.759161e-07
74 chany_bottom_in[0]:38 chany_bottom_in[16]:38 0.0004278847
75 chany_bottom_in[0]:38 chany_bottom_in[16]:37 0.0001524968
76 chany_bottom_in[0]:37 chany_bottom_in[16]:32 0.0001524968
77 chany_bottom_in[0]:37 chany_bottom_in[16]:37 0.0004278847
78 chany_bottom_in[0]:52 chany_bottom_in[16]:43 7.904934e-07
79 chany_bottom_in[0]:42 chany_bottom_in[16]:43 6.10487e-07
80 chany_bottom_in[0]:42 chany_bottom_in[16]:44 8.759161e-07
81 chany_bottom_in[0]:53 chany_bottom_in[16]:44 7.904934e-07
82 chany_bottom_in[0]:43 chany_bottom_in[16]:44 6.10487e-07
83 chany_bottom_in[0]:14 chany_top_in[0]:66 8.143297e-06
84 chany_bottom_in[0]:14 chany_top_in[0]:67 1.33601e-05
85 chany_bottom_in[0]:39 chany_top_in[0]:41 0.0001580365
86 chany_bottom_in[0]:39 chany_top_in[0]:40 5.78238e-06
87 chany_bottom_in[0]:39 chany_top_in[0]:37 2.359442e-06
88 chany_bottom_in[0]:23 chany_top_in[0]:63 5.456297e-05
89 chany_bottom_in[0]:23 chany_top_in[0]:67 2.228778e-06
90 chany_bottom_in[0]:20 chany_top_in[0]:62 5.15751e-06
91 chany_bottom_in[0]:25 chany_top_in[0]:55 1.925506e-06
92 chany_bottom_in[0]:25 chany_top_in[0]:56 1.335052e-06
93 chany_bottom_in[0]:26 chany_top_in[0]:54 2.263207e-06
94 chany_bottom_in[0]:26 chany_top_in[0]:63 1.163435e-05
95 chany_bottom_in[0]:26 chany_top_in[0]:59 1.388917e-05
96 chany_bottom_in[0]:26 chany_top_in[0]:60 5.164e-05
97 chany_bottom_in[0]:24 chany_top_in[0]:57 1.335052e-06
98 chany_bottom_in[0]:24 chany_top_in[0]:56 1.925506e-06
99 chany_bottom_in[0]:33 chany_top_in[0]:45 4.790003e-06
100 chany_bottom_in[0]:34 chany_top_in[0]:46 1.460624e-07
101 chany_bottom_in[0]:32 chany_top_in[0]:44 4.790003e-06
102 chany_bottom_in[0]:47 chany_top_in[0]:34 5.174831e-06
103 chany_bottom_in[0]:17 chany_top_in[0]:63 1.33601e-05
104 chany_bottom_in[0]:17 chany_top_in[0]:67 0.0003557163
105 chany_bottom_in[0]:28 chany_top_in[0]:42 6.433571e-06
106 chany_bottom_in[0]:28 chany_top_in[0]:43 3.161418e-05
107 chany_bottom_in[0]:29 chany_top_in[0]:41 5.78238e-06
108 chany_bottom_in[0]:29 chany_top_in[0]:53 2.263207e-06
109 chany_bottom_in[0]:29 chany_top_in[0]:58 1.388917e-05
110 chany_bottom_in[0]:29 chany_top_in[0]:60 9.405568e-06
111 chany_bottom_in[0]:27 chany_top_in[0]:52 3.161418e-05
112 chany_bottom_in[0]:27 chany_top_in[0]:11 6.433571e-06
113 chany_bottom_in[0]:42 chany_top_in[0]:36 2.359442e-06
114 chany_bottom_in[0]:42 chany_top_in[0]:40 0.0001580365
115 chany_bottom_in[0]:42 chany_top_in[0]:37 7.741567e-05
116 chany_bottom_in[0]:21 chany_top_in[0]:61 5.15751e-06
117 chany_bottom_in[0]:35 chany_top_in[0]:50 1.460624e-07
118 chany_bottom_in[0]:43 chany_top_in[0]:36 7.741567e-05
119 chany_bottom_in[0]:43 chany_top_in[0]:35 5.174831e-06
120 chany_bottom_in[0]:19 chany_top_in[0]:67 2.92297e-06
121 chany_bottom_in[0]:18 chany_top_in[0]:63 0.000347573
122 chany_bottom_in[0]:47 chany_top_in[14]:21 2.372772e-05
123 chany_bottom_in[0]:47 chany_top_in[14]:20 2.805253e-05
124 chany_bottom_in[0]:52 chany_top_in[14]:17 2.805253e-05
125 chany_bottom_in[0]:52 chany_top_in[14]:20 3.183783e-05
126 chany_bottom_in[0]:42 chany_top_in[14]:21 0.0002011271
127 chany_bottom_in[0]:53 chany_top_in[14]:17 8.110117e-06
128 chany_bottom_in[0]:54 chany_top_in[14]:16 0.000171337
129 chany_bottom_in[0]:55 chany_top_in[14]:15 0.000171337
130 chany_bottom_in[0]:43 chany_top_in[14]:20 0.0002011271
131 chany_bottom_in[0]:38 mux_right_ipin_14/sky130_fd_sc_hd__mux2_1_7_X[0]:7 0.0002664655
132 chany_bottom_in[0]:37 mux_right_ipin_14/sky130_fd_sc_hd__mux2_1_7_X[0]:6 0.0002664655
133 chany_bottom_in[0] ropt_net_177:7 9.360015e-05
134 chany_bottom_in[0]:56 ropt_net_177:8 9.360015e-05

*RES
0 chany_bottom_in[0] chany_bottom_in[0]:56 0.007904017
1 chany_bottom_in[0]:11 BUFT_RR_63:A 0.152
2 chany_bottom_in[0]:13 chany_bottom_in[0]:12 0.001602679
3 chany_bottom_in[0]:14 chany_bottom_in[0]:13 0.0045
4 chany_bottom_in[0]:39 chany_bottom_in[0]:38 0.00341
5 chany_bottom_in[0]:39 chany_bottom_in[0]:29 0.0009107143
6 chany_bottom_in[0]:38 chany_bottom_in[0]:37 0.006051249
7 chany_bottom_in[0]:36 chany_bottom_in[0]:35 0.0008593751
8 chany_bottom_in[0]:37 chany_bottom_in[0]:36 0.00341
9 chany_bottom_in[0]:22 chany_bottom_in[0]:21 0.0003035715
10 chany_bottom_in[0]:23 chany_bottom_in[0]:22 0.0045
11 chany_bottom_in[0]:23 chany_bottom_in[0]:19 0.000221875
12 chany_bottom_in[0]:20 mux_right_ipin_7\/mux_l1_in_0_:A1 0.152
13 chany_bottom_in[0]:25 chany_bottom_in[0]:24 0.0004263393
14 chany_bottom_in[0]:26 chany_bottom_in[0]:25 0.0045
15 chany_bottom_in[0]:26 chany_bottom_in[0]:23 0.004540179
16 chany_bottom_in[0]:24 mux_right_ipin_15\/mux_l1_in_0_:A1 0.152
17 chany_bottom_in[0]:33 chany_bottom_in[0]:32 0.003212054
18 chany_bottom_in[0]:34 chany_bottom_in[0]:33 0.0045
19 chany_bottom_in[0]:32 mux_right_ipin_3\/mux_l1_in_0_:A1 0.152
20 chany_bottom_in[0]:46 chany_bottom_in[0]:45 0.0003035715
21 chany_bottom_in[0]:47 chany_bottom_in[0]:46 0.0045
22 chany_bottom_in[0]:47 chany_bottom_in[0]:43 0.0008214285
23 chany_bottom_in[0]:44 mux_right_ipin_9\/mux_l1_in_0_:A1 0.152
24 chany_bottom_in[0]:16 chany_bottom_in[0]:15 0.0003370536
25 chany_bottom_in[0]:17 chany_bottom_in[0]:16 0.0045
26 chany_bottom_in[0]:17 chany_bottom_in[0]:14 0.007852679
27 chany_bottom_in[0]:15 mux_right_ipin_1\/mux_l1_in_0_:A1 0.152
28 chany_bottom_in[0]:30 mux_right_ipin_11\/mux_l1_in_0_:A1 0.152
29 chany_bottom_in[0]:31 chany_bottom_in[0]:30 0.0045
30 chany_bottom_in[0]:51 chany_bottom_in[0]:50 0.001602679
31 chany_bottom_in[0]:52 chany_bottom_in[0]:51 0.0045
32 chany_bottom_in[0]:52 chany_bottom_in[0]:47 0.009107144
33 chany_bottom_in[0]:48 mux_right_ipin_13\/mux_l1_in_0_:A1 0.152
34 chany_bottom_in[0]:28 chany_bottom_in[0]:27 0.000421875
35 chany_bottom_in[0]:29 chany_bottom_in[0]:28 0.0045
36 chany_bottom_in[0]:29 chany_bottom_in[0]:26 0.01457143
37 chany_bottom_in[0]:27 mux_right_ipin_5\/mux_l1_in_0_:A1 0.152
38 chany_bottom_in[0]:41 chany_bottom_in[0]:40 0.0001766305
39 chany_bottom_in[0]:42 chany_bottom_in[0]:41 0.0045
40 chany_bottom_in[0]:42 chany_bottom_in[0]:39 0.01153572
41 chany_bottom_in[0]:40 mux_left_ipin_0\/mux_l1_in_0_:A1 0.152
42 chany_bottom_in[0]:53 chany_bottom_in[0]:52 0.002377232
43 chany_bottom_in[0]:54 chany_bottom_in[0]:53 0.00341
44 chany_bottom_in[0]:56 chany_bottom_in[0]:55 0.00341
45 chany_bottom_in[0]:55 chany_bottom_in[0]:54 0.00129485
46 chany_bottom_in[0]:45 chany_bottom_in[0]:44 0.0006986608
47 chany_bottom_in[0]:50 chany_bottom_in[0]:49 0.0003035715
48 chany_bottom_in[0]:21 chany_bottom_in[0]:20 0.0008772322
49 chany_bottom_in[0]:12 chany_bottom_in[0]:11 0.0003035715
50 chany_bottom_in[0]:49 chany_bottom_in[0]:48 0.0002924107
51 chany_bottom_in[0]:35 chany_bottom_in[0]:34 0.00178125
52 chany_bottom_in[0]:35 chany_bottom_in[0]:31 0.0004107143
53 chany_bottom_in[0]:43 chany_bottom_in[0]:42 0.017
54 chany_bottom_in[0]:19 chany_bottom_in[0]:18 0.0003705357
55 chany_bottom_in[0]:18 chany_bottom_in[0]:17 0.01153572

*END

*D_NET chany_bottom_in[15] 0.01330207 //LENGTH 118.335 LUMPCC 0.003748492 DR

*CONN
*P chany_bottom_in[15] I *L 0.29796 *C 22.540 1.290
*I mux_right_ipin_10\/mux_l2_in_2_:A0 I *L 0.001631 *C 15.470 38.760
*I mux_right_ipin_4\/mux_l2_in_2_:A0 I *L 0.001631 *C 20.070 77.180
*I mux_right_ipin_2\/mux_l2_in_2_:A0 I *L 0.001631 *C 20.070 93.500
*I FTB_16__15:A I *L 0.001776 *C 16.560 104.720
*N chany_bottom_in[15]:5 *C 20.590 77.180
*N chany_bottom_in[15]:6 *C 16.598 104.720
*N chany_bottom_in[15]:7 *C 19.735 104.720
*N chany_bottom_in[15]:8 *C 19.780 104.675
*N chany_bottom_in[15]:9 *C 19.780 99.620
*N chany_bottom_in[15]:10 *C 20.240 99.620
*N chany_bottom_in[15]:11 *C 20.070 93.500
*N chany_bottom_in[15]:12 *C 20.240 93.500
*N chany_bottom_in[15]:13 *C 20.240 93.500
*N chany_bottom_in[15]:14 *C 20.070 77.180
*N chany_bottom_in[15]:15 *C 20.240 77.180
*N chany_bottom_in[15]:16 *C 20.240 77.180
*N chany_bottom_in[15]:17 *C 20.242 77.180
*N chany_bottom_in[15]:18 *C 20.240 77.172
*N chany_bottom_in[15]:19 *C 15.470 38.760
*N chany_bottom_in[15]:20 *C 15.640 38.760
*N chany_bottom_in[15]:21 *C 15.640 38.760
*N chany_bottom_in[15]:22 *C 15.648 38.760
*N chany_bottom_in[15]:23 *C 20.220 38.760
*N chany_bottom_in[15]:24 *C 20.240 38.760
*N chany_bottom_in[15]:25 *C 21.160 38.760
*N chany_bottom_in[15]:26 *C 21.160 5.448
*N chany_bottom_in[15]:27 *C 21.180 5.440
*N chany_bottom_in[15]:28 *C 22.533 5.440
*N chany_bottom_in[15]:29 *C 22.540 5.383

*CAP
0 chany_bottom_in[15] 0.0002550919
1 mux_right_ipin_10\/mux_l2_in_2_:A0 1e-06
2 mux_right_ipin_4\/mux_l2_in_2_:A0 1e-06
3 mux_right_ipin_2\/mux_l2_in_2_:A0 1e-06
4 FTB_16__15:A 1e-06
5 chany_bottom_in[15]:5 6.976276e-05
6 chany_bottom_in[15]:6 9.973046e-05
7 chany_bottom_in[15]:7 9.973046e-05
8 chany_bottom_in[15]:8 0.0002776676
9 chany_bottom_in[15]:9 0.0003062039
10 chany_bottom_in[15]:10 0.0003255224
11 chany_bottom_in[15]:11 6.976423e-05
12 chany_bottom_in[15]:12 6.600979e-05
13 chany_bottom_in[15]:13 0.001150595
14 chany_bottom_in[15]:14 5.739582e-05
15 chany_bottom_in[15]:15 5.859761e-05
16 chany_bottom_in[15]:16 0.0008577109
17 chany_bottom_in[15]:17 6.976276e-05
18 chany_bottom_in[15]:18 0.001053238
19 chany_bottom_in[15]:19 4.825641e-05
20 chany_bottom_in[15]:20 5.259007e-05
21 chany_bottom_in[15]:21 3.489892e-05
22 chany_bottom_in[15]:22 0.00028726
23 chany_bottom_in[15]:23 0.00028726
24 chany_bottom_in[15]:24 0.001115878
25 chany_bottom_in[15]:25 0.001257562
26 chany_bottom_in[15]:26 0.001194922
27 chany_bottom_in[15]:27 9.95353e-05
28 chany_bottom_in[15]:28 9.95353e-05
29 chany_bottom_in[15]:29 0.0002550919
30 chany_bottom_in[15]:26 chany_bottom_in[9]:31 0.000181751
31 chany_bottom_in[15]:16 chany_bottom_in[9]:23 6.993553e-07
32 chany_bottom_in[15]:13 chany_bottom_in[9]:22 6.993553e-07
33 chany_bottom_in[15]:24 chany_bottom_in[9]:31 0.0004908026
34 chany_bottom_in[15]:18 chany_bottom_in[9]:30 0.0004908026
35 chany_bottom_in[15]:25 chany_bottom_in[9]:30 0.000181751
36 chany_bottom_in[15]:27 chany_bottom_in[13]:27 6.626737e-06
37 chany_bottom_in[15]:26 chany_bottom_in[13]:29 0.0002877676
38 chany_bottom_in[15]:26 chany_bottom_in[13]:30 4.361999e-05
39 chany_bottom_in[15]:28 chany_bottom_in[13]:28 6.626737e-06
40 chany_bottom_in[15]:25 chany_bottom_in[13]:23 0.0002877676
41 chany_bottom_in[15]:25 chany_bottom_in[13]:29 4.361999e-05
42 chany_bottom_in[15]:26 chany_top_in[7]:32 1.058222e-05
43 chany_bottom_in[15]:13 chany_top_in[7]:39 6.331564e-06
44 chany_bottom_in[15]:23 chany_top_in[7]:31 4.464831e-05
45 chany_bottom_in[15]:24 chany_top_in[7]:32 0.0005316976
46 chany_bottom_in[15]:22 chany_top_in[7]:30 4.464831e-05
47 chany_bottom_in[15]:18 chany_top_in[7]:33 0.0005316976
48 chany_bottom_in[15]:10 chany_top_in[7]:40 6.331564e-06
49 chany_bottom_in[15]:25 chany_top_in[7]:33 1.058222e-05
50 chany_bottom_in[15]:13 mux_tree_tapbuf_size10_mem_2_ccff_tail[0]:5 5.335233e-05
51 chany_bottom_in[15]:10 mux_tree_tapbuf_size10_mem_2_ccff_tail[0]:4 5.335233e-05
52 chany_bottom_in[15]:16 mux_right_ipin_4/sky130_fd_sc_hd__mux2_1_1_X[0]:4 8.246173e-05
53 chany_bottom_in[15]:13 mux_right_ipin_4/sky130_fd_sc_hd__mux2_1_1_X[0]:5 8.246173e-05
54 chany_bottom_in[15]:6 ropt_net_160:5 0.0001339053
55 chany_bottom_in[15]:7 ropt_net_160:4 0.0001339053

*RES
0 chany_bottom_in[15] chany_bottom_in[15]:29 0.003654018
1 chany_bottom_in[15]:6 FTB_16__15:A 0.152
2 chany_bottom_in[15]:7 chany_bottom_in[15]:6 0.00280134
3 chany_bottom_in[15]:8 chany_bottom_in[15]:7 0.0045
4 chany_bottom_in[15]:27 chany_bottom_in[15]:26 0.00341
5 chany_bottom_in[15]:26 chany_bottom_in[15]:25 0.005218958
6 chany_bottom_in[15]:29 chany_bottom_in[15]:28 0.00341
7 chany_bottom_in[15]:28 chany_bottom_in[15]:27 0.0002118917
8 chany_bottom_in[15]:15 chany_bottom_in[15]:14 9.239131e-05
9 chany_bottom_in[15]:16 chany_bottom_in[15]:15 0.0045
10 chany_bottom_in[15]:16 chany_bottom_in[15]:13 0.01457143
11 chany_bottom_in[15]:14 mux_right_ipin_4\/mux_l2_in_2_:A0 0.152
12 chany_bottom_in[15]:12 chany_bottom_in[15]:11 9.239132e-05
13 chany_bottom_in[15]:13 chany_bottom_in[15]:12 0.0045
14 chany_bottom_in[15]:13 chany_bottom_in[15]:10 0.005464286
15 chany_bottom_in[15]:11 mux_right_ipin_2\/mux_l2_in_2_:A0 0.152
16 chany_bottom_in[15]:23 chany_bottom_in[15]:22 0.0007163583
17 chany_bottom_in[15]:24 chany_bottom_in[15]:23 0.00341
18 chany_bottom_in[15]:24 chany_bottom_in[15]:18 0.006017958
19 chany_bottom_in[15]:21 chany_bottom_in[15]:20 0.0045
20 chany_bottom_in[15]:22 chany_bottom_in[15]:21 0.00341
21 chany_bottom_in[15]:20 chany_bottom_in[15]:19 9.239131e-05
22 chany_bottom_in[15]:19 mux_right_ipin_10\/mux_l2_in_2_:A0 0.152
23 chany_bottom_in[15]:17 chany_bottom_in[15]:16 0.00341
24 chany_bottom_in[15]:17 chany_bottom_in[15]:5 5.103906e-05
25 chany_bottom_in[15]:18 chany_bottom_in[15]:17 0.00341
26 chany_bottom_in[15]:9 chany_bottom_in[15]:8 0.004513393
27 chany_bottom_in[15]:10 chany_bottom_in[15]:9 0.0004107143
28 chany_bottom_in[15]:25 chany_bottom_in[15]:24 0.0001441333

*END

*D_NET chany_bottom_in[16] 0.02578479 //LENGTH 205.538 LUMPCC 0.003223494 DR

*CONN
*P chany_bottom_in[16] I *L 0.29796 *C 58.420 1.325
*I mux_right_ipin_11\/mux_l2_in_2_:A0 I *L 0.001631 *C 30.650 55.420
*I mux_right_ipin_3\/mux_l2_in_2_:A0 I *L 0.001631 *C 23.175 60.520
*I mux_right_ipin_5\/mux_l2_in_2_:A0 I *L 0.001631 *C 65.035 53.380
*I mux_left_ipin_0\/mux_l2_in_2_:A0 I *L 0.001631 *C 66.415 58.820
*I ropt_mt_inst_734:A I *L 0.001767 *C 44.620 102.000
*N chany_bottom_in[16]:6 *C 44.657 102.000
*N chany_bottom_in[16]:7 *C 46.875 102.000
*N chany_bottom_in[16]:8 *C 46.920 102.045
*N chany_bottom_in[16]:9 *C 46.920 106.715
*N chany_bottom_in[16]:10 *C 46.965 106.760
*N chany_bottom_in[16]:11 *C 66.655 106.760
*N chany_bottom_in[16]:12 *C 66.700 106.760
*N chany_bottom_in[16]:13 *C 66.708 106.760
*N chany_bottom_in[16]:14 *C 73.580 106.760
*N chany_bottom_in[16]:15 *C 73.600 106.753
*N chany_bottom_in[16]:16 *C 73.600 61.208
*N chany_bottom_in[16]:17 *C 73.580 61.200
*N chany_bottom_in[16]:18 *C 66.708 61.200
*N chany_bottom_in[16]:19 *C 66.700 61.143
*N chany_bottom_in[16]:20 *C 66.415 58.820
*N chany_bottom_in[16]:21 *C 66.700 58.820
*N chany_bottom_in[16]:22 *C 66.700 58.820
*N chany_bottom_in[16]:23 *C 66.700 53.765
*N chany_bottom_in[16]:24 *C 66.655 53.720
*N chany_bottom_in[16]:25 *C 64.860 53.720
*N chany_bottom_in[16]:26 *C 64.910 53.403
*N chany_bottom_in[16]:27 *C 64.860 53.380
*N chany_bottom_in[16]:28 *C 23.175 60.520
*N chany_bottom_in[16]:29 *C 23.000 60.520
*N chany_bottom_in[16]:30 *C 23.000 60.475
*N chany_bottom_in[16]:31 *C 23.000 56.498
*N chany_bottom_in[16]:32 *C 23.008 56.440
*N chany_bottom_in[16]:33 *C 30.650 55.420
*N chany_bottom_in[16]:34 *C 30.820 55.420
*N chany_bottom_in[16]:35 *C 30.820 55.465
*N chany_bottom_in[16]:36 *C 30.820 56.383
*N chany_bottom_in[16]:37 *C 30.820 56.440
*N chany_bottom_in[16]:38 *C 52.433 56.440
*N chany_bottom_in[16]:39 *C 52.440 56.383
*N chany_bottom_in[16]:40 *C 52.440 53.425
*N chany_bottom_in[16]:41 *C 52.485 53.380
*N chany_bottom_in[16]:42 *C 60.260 53.380
*N chany_bottom_in[16]:43 *C 60.260 53.335
*N chany_bottom_in[16]:44 *C 60.260 6.120
*N chany_bottom_in[16]:45 *C 58.420 6.120

*CAP
0 chany_bottom_in[16] 0.0002961284
1 mux_right_ipin_11\/mux_l2_in_2_:A0 1e-06
2 mux_right_ipin_3\/mux_l2_in_2_:A0 1e-06
3 mux_right_ipin_5\/mux_l2_in_2_:A0 1e-06
4 mux_left_ipin_0\/mux_l2_in_2_:A0 1e-06
5 ropt_mt_inst_734:A 1e-06
6 chany_bottom_in[16]:6 0.00022721
7 chany_bottom_in[16]:7 0.00022721
8 chany_bottom_in[16]:8 0.0003023693
9 chany_bottom_in[16]:9 0.0003023693
10 chany_bottom_in[16]:10 0.001491
11 chany_bottom_in[16]:11 0.001491
12 chany_bottom_in[16]:12 3.841261e-05
13 chany_bottom_in[16]:13 0.0005195056
14 chany_bottom_in[16]:14 0.0005195056
15 chany_bottom_in[16]:15 0.002441583
16 chany_bottom_in[16]:16 0.002441583
17 chany_bottom_in[16]:17 0.0004619361
18 chany_bottom_in[16]:18 0.0004619361
19 chany_bottom_in[16]:19 8.826407e-05
20 chany_bottom_in[16]:20 4.906071e-05
21 chany_bottom_in[16]:21 5.327319e-05
22 chany_bottom_in[16]:22 0.0003637842
23 chany_bottom_in[16]:23 0.0002458129
24 chany_bottom_in[16]:24 0.0001492733
25 chany_bottom_in[16]:25 0.0001682386
26 chany_bottom_in[16]:26 2.892872e-05
27 chany_bottom_in[16]:27 0.0002968123
28 chany_bottom_in[16]:28 5.276094e-05
29 chany_bottom_in[16]:29 5.64546e-05
30 chany_bottom_in[16]:30 0.0001961493
31 chany_bottom_in[16]:31 0.0001961493
32 chany_bottom_in[16]:32 0.0003368286
33 chany_bottom_in[16]:33 5.823866e-05
34 chany_bottom_in[16]:34 6.314852e-05
35 chany_bottom_in[16]:35 0.0001019907
36 chany_bottom_in[16]:36 0.0001019907
37 chany_bottom_in[16]:37 0.00149277
38 chany_bottom_in[16]:38 0.001155941
39 chany_bottom_in[16]:39 0.0001900377
40 chany_bottom_in[16]:40 0.0001900377
41 chany_bottom_in[16]:41 0.0004343784
42 chany_bottom_in[16]:42 0.000754194
43 chany_bottom_in[16]:43 0.002006852
44 chany_bottom_in[16]:44 0.002106949
45 chany_bottom_in[16]:45 0.0003962254
46 chany_bottom_in[16]:43 chany_bottom_in[0]:39 8.759161e-07
47 chany_bottom_in[16]:43 chany_bottom_in[0]:42 6.10487e-07
48 chany_bottom_in[16]:43 chany_bottom_in[0]:52 7.904934e-07
49 chany_bottom_in[16]:38 chany_bottom_in[0]:38 0.0004278847
50 chany_bottom_in[16]:32 chany_bottom_in[0]:37 0.0001524968
51 chany_bottom_in[16]:37 chany_bottom_in[0]:37 0.0004278847
52 chany_bottom_in[16]:37 chany_bottom_in[0]:38 0.0001524968
53 chany_bottom_in[16]:44 chany_bottom_in[0]:42 8.759161e-07
54 chany_bottom_in[16]:44 chany_bottom_in[0]:43 6.10487e-07
55 chany_bottom_in[16]:44 chany_bottom_in[0]:53 7.904934e-07
56 chany_bottom_in[16] chany_top_in[0]:24 1.170477e-06
57 chany_bottom_in[16]:43 chany_top_in[0]:41 4.808248e-05
58 chany_bottom_in[16]:43 chany_top_in[0]:36 9.272501e-07
59 chany_bottom_in[16]:43 chany_top_in[0]:25 8.215302e-05
60 chany_bottom_in[16]:43 chany_top_in[0]:37 0.0001675494
61 chany_bottom_in[16]:43 chany_top_in[0]:30 0.000129886
62 chany_bottom_in[16]:39 chany_top_in[0]:54 3.045263e-07
63 chany_bottom_in[16]:40 chany_top_in[0]:53 3.045263e-07
64 chany_bottom_in[16]:31 chany_top_in[0]:50 5.303367e-06
65 chany_bottom_in[16]:31 chany_top_in[0]:49 2.575582e-07
66 chany_bottom_in[16]:30 chany_top_in[0]:50 2.575582e-07
67 chany_bottom_in[16]:30 chany_top_in[0]:46 5.303367e-06
68 chany_bottom_in[16]:34 chany_top_in[0]:52 3.586354e-07
69 chany_bottom_in[16]:33 chany_top_in[0]:51 3.586354e-07
70 chany_bottom_in[16]:45 chany_top_in[0]:25 1.170477e-06
71 chany_bottom_in[16]:44 chany_top_in[0]:29 0.000129886
72 chany_bottom_in[16]:44 chany_top_in[0]:36 0.0001675494
73 chany_bottom_in[16]:44 chany_top_in[0]:24 8.215302e-05
74 chany_bottom_in[16]:44 chany_top_in[0]:40 4.808248e-05
75 chany_bottom_in[16]:44 chany_top_in[0]:31 9.272501e-07
76 chany_bottom_in[16]:38 chany_top_in[8]:15 5.750371e-05
77 chany_bottom_in[16]:38 chany_top_in[8]:25 1.630031e-05
78 chany_bottom_in[16]:38 chany_top_in[8]:26 5.635593e-05
79 chany_bottom_in[16]:31 chany_top_in[8]:19 3.70874e-05
80 chany_bottom_in[16]:32 chany_top_in[8]:20 0.0001338261
81 chany_bottom_in[16]:30 chany_top_in[8]:18 3.70874e-05
82 chany_bottom_in[16]:37 chany_top_in[8]:20 1.630031e-05
83 chany_bottom_in[16]:37 chany_top_in[8]:25 0.000190182
84 chany_bottom_in[16]:37 chany_top_in[8]:26 5.750371e-05
85 chany_bottom_in[16]:34 chany_top_in[8]:22 1.007333e-06
86 chany_bottom_in[16]:33 chany_top_in[8]:21 1.007333e-06
87 chany_bottom_in[16]:23 mux_right_ipin_5/sky130_fd_sc_hd__mux2_1_6_X[0]:5 7.483782e-05
88 chany_bottom_in[16]:22 mux_right_ipin_5/sky130_fd_sc_hd__mux2_1_6_X[0]:4 7.483782e-05
89 chany_bottom_in[16]:22 mux_right_ipin_5/sky130_fd_sc_hd__mux2_1_6_X[0]:5 6.929342e-05
90 chany_bottom_in[16]:19 mux_right_ipin_5/sky130_fd_sc_hd__mux2_1_6_X[0]:4 6.929342e-05
91 chany_bottom_in[16]:43 mux_right_ipin_9/sky130_fd_sc_hd__mux2_1_8_X[0]:4 7.084155e-05
92 chany_bottom_in[16]:44 mux_right_ipin_9/sky130_fd_sc_hd__mux2_1_8_X[0]:5 7.084155e-05
93 chany_bottom_in[16]:9 ropt_net_172:4 7.604252e-05
94 chany_bottom_in[16]:8 ropt_net_172:5 7.604252e-05

*RES
0 chany_bottom_in[16] chany_bottom_in[16]:45 0.00428125
1 chany_bottom_in[16]:42 chany_bottom_in[16]:41 0.006941965
2 chany_bottom_in[16]:42 chany_bottom_in[16]:27 0.004107143