*SPEF "1481-1998"
*DESIGN "sb_0__1_"
*DATE "Tue Oct 27 11:35:07 2020"
*
*
*
*
*DIVIDER /
*DELIMITER :
*T_UNIT 1 NS
*C_UNIT 1 PF
*R_UNIT 1 KOHM
*L_UNIT 1 HENRY

// XY_UNIT 1 UM
// PARASITIC_TECH nominal at 25.000 degree

*PORTS
prog_clk[0] I *C 0.690 48.960
chany_top_in[0] I *C 45.080 97.240
chany_top_in[1] I *C 46.000 97.240
chany_top_in[2] I *C 53.360 97.240
chany_top_in[3] I *C 31.740 97.240
chany_top_in[4] I *C 28.980 97.240
chany_top_in[5] I *C 33.580 97.240
chany_top_in[6] I *C 49.680 97.240
chany_top_in[7] I *C 50.600 97.240
chany_top_in[8] I *C 63.940 97.240
chany_top_in[9] I *C 56.120 97.240
chany_top_in[10] I *C 27.140 97.240
chany_top_in[11] I *C 30.820 97.240
chany_top_in[12] I *C 57.040 97.240
chany_top_in[13] I *C 33.120 97.240
chany_top_in[14] I *C 12.880 97.240
chany_top_in[15] I *C 47.840 97.240
chany_top_in[16] I *C 42.320 97.240
chany_top_in[17] I *C 14.720 97.240
chany_top_in[18] I *C 46.000 97.240
chany_top_in[19] I *C 47.840 97.240
top_left_grid_pin_1_[0] I *C 2.300 97.240
chanx_right_in[0] I *C 83.950 36.040
chanx_right_in[1] I *C 83.950 78.200
chanx_right_in[2] I *C 83.950 26.520
chanx_right_in[3] I *C 83.950 75.480
chanx_right_in[4] I *C 83.950 76.840
chanx_right_in[5] I *C 83.950 72.760
chanx_right_in[6] I *C 83.950 37.400
chanx_right_in[7] I *C 83.950 51.680
chanx_right_in[8] I *C 83.950 38.760
chanx_right_in[9] I *C 83.950 46.920
chanx_right_in[10] I *C 83.950 34.680
chanx_right_in[11] I *C 83.950 74.120
chanx_right_in[12] I *C 83.950 31.960
chanx_right_in[13] I *C 83.950 71.400
chanx_right_in[14] I *C 83.950 54.400
chanx_right_in[15] I *C 83.950 48.960
chanx_right_in[16] I *C 83.950 25.160
chanx_right_in[17] I *C 83.950 20.400
chanx_right_in[18] I *C 83.950 33.320
chanx_right_in[19] I *C 83.950 70.040
right_top_grid_pin_42_[0] I *C 76.360 80.920
right_top_grid_pin_43_[0] I *C 63.020 97.240
right_top_grid_pin_44_[0] I *C 78.660 80.920
right_top_grid_pin_45_[0] I *C 81.880 80.920
right_top_grid_pin_46_[0] I *C 80.960 80.920
right_top_grid_pin_47_[0] I *C 77.280 80.920
right_top_grid_pin_48_[0] I *C 80.040 80.920
right_top_grid_pin_49_[0] I *C 80.040 80.920
chany_bottom_in[0] I *C 46.920 0.680
chany_bottom_in[1] I *C 16.560 0.680
chany_bottom_in[2] I *C 43.240 0.680
chany_bottom_in[3] I *C 14.720 0.680
chany_bottom_in[4] I *C 56.120 0.680
chany_bottom_in[5] I *C 46.000 0.680
chany_bottom_in[6] I *C 23.000 0.680
chany_bottom_in[7] I *C 27.600 0.680
chany_bottom_in[8] I *C 9.660 0.680
chany_bottom_in[9] I *C 20.240 0.680
chany_bottom_in[10] I *C 41.400 0.680
chany_bottom_in[11] I *C 38.640 0.680
chany_bottom_in[12] I *C 58.880 0.680
chany_bottom_in[13] I *C 57.960 0.680
chany_bottom_in[14] I *C 57.040 0.680
chany_bottom_in[15] I *C 23.920 0.680
chany_bottom_in[16] I *C 35.880 0.680
chany_bottom_in[17] I *C 34.960 0.680
chany_bottom_in[18] I *C 34.040 0.680
chany_bottom_in[19] I *C 30.820 0.680
bottom_left_grid_pin_1_[0] I *C 2.300 0.680
ccff_head[0] I *C 83.950 58.480
chany_top_out[0] O *C 42.320 97.240
chany_top_out[1] O *C 46.920 97.240
chany_top_out[2] O *C 43.240 97.240
chany_top_out[3] O *C 51.520 97.240
chany_top_out[4] O *C 32.660 97.240
chany_top_out[5] O *C 54.280 97.240
chany_top_out[6] O *C 4.600 97.240
chany_top_out[7] O *C 49.680 97.240
chany_top_out[8] O *C 6.440 97.240
chany_top_out[9] O *C 8.280 97.240
chany_top_out[10] O *C 48.760 97.240
chany_top_out[11] O *C 52.440 97.240
chany_top_out[12] O *C 7.820 97.240
chany_top_out[13] O *C 23.920 97.240
chany_top_out[14] O *C 8.740 97.240
chany_top_out[15] O *C 31.280 97.240
chany_top_out[16] O *C 28.060 97.240
chany_top_out[17] O *C 44.160 97.240
chany_top_out[18] O *C 29.440 97.240
chany_top_out[19] O *C 27.600 97.240
chanx_right_out[0] O *C 83.950 50.320
chanx_right_out[1] O *C 83.950 67.320
chanx_right_out[2] O *C 83.950 27.880
chanx_right_out[3] O *C 83.950 68.680
chanx_right_out[4] O *C 83.950 42.840
chanx_right_out[5] O *C 83.950 61.200
chanx_right_out[6] O *C 83.950 29.240
chanx_right_out[7] O *C 83.950 55.760
chanx_right_out[8] O *C 83.950 40.120
chanx_right_out[9] O *C 83.950 59.840
chanx_right_out[10] O *C 83.950 44.880
chanx_right_out[11] O *C 83.950 57.120
chanx_right_out[12] O *C 83.950 30.600
chanx_right_out[13] O *C 83.950 53.040
chanx_right_out[14] O *C 83.950 23.120
chanx_right_out[15] O *C 83.950 62.560
chanx_right_out[16] O *C 83.950 21.760
chanx_right_out[17] O *C 83.950 65.280
chanx_right_out[18] O *C 83.950 41.480
chanx_right_out[19] O *C 83.950 63.920
chany_bottom_out[0] O *C 22.080 0.680
chany_bottom_out[1] O *C 44.160 0.680
chany_bottom_out[2] O *C 45.080 0.680
chany_bottom_out[3] O *C 54.280 0.680
chany_bottom_out[4] O *C 42.320 0.680
chany_bottom_out[5] O *C 53.360 0.680
chany_bottom_out[6] O *C 51.520 0.680
chany_bottom_out[7] O *C 47.840 0.680
chany_bottom_out[8] O *C 50.600 0.680
chany_bottom_out[9] O *C 29.900 0.680
chany_bottom_out[10] O *C 21.160 0.680
chany_bottom_out[11] O *C 46.920 0.680
chany_bottom_out[12] O *C 52.440 0.680
chany_bottom_out[13] O *C 48.760 0.680
chany_bottom_out[14] O *C 49.680 0.680
chany_bottom_out[15] O *C 28.980 0.680
chany_bottom_out[16] O *C 33.120 0.680
chany_bottom_out[17] O *C 24.840 0.680
chany_bottom_out[18] O *C 27.140 0.680
chany_bottom_out[19] O *C 28.060 0.680
ccff_tail[0] O *C 32.200 0.680
VDD I *C 42.320 48.960
VSS I *C 42.320 48.960

*D_NET chany_top_in[2] 0.02289641 //LENGTH 152.605 LUMPCC 0.008358445 DR

*CONN
*P chany_top_in[2] I *L 0.29796 *C 53.360 96.630
*I mux_right_track_0\/mux_l1_in_0_:A1 I *L 0.00198 *C 63.940 69.020
*I BUFT_P_96:A I *L 0.001767 *C 53.820 6.800
*I mux_bottom_track_1\/mux_l1_in_0_:A1 I *L 0.00198 *C 23.365 18.020
*N chany_top_in[2]:4 *C 23.365 18.020
*N chany_top_in[2]:5 *C 23.460 17.975
*N chany_top_in[2]:6 *C 23.460 11.617
*N chany_top_in[2]:7 *C 23.468 11.560
*N chany_top_in[2]:8 *C 53.820 6.800
*N chany_top_in[2]:9 *C 53.820 6.845
*N chany_top_in[2]:10 *C 53.820 11.503
*N chany_top_in[2]:11 *C 53.820 11.560
*N chany_top_in[2]:12 *C 59.780 11.560
*N chany_top_in[2]:13 *C 59.800 11.568
*N chany_top_in[2]:14 *C 59.800 61.873
*N chany_top_in[2]:15 *C 59.820 61.880
*N chany_top_in[2]:16 *C 64.392 61.880
*N chany_top_in[2]:17 *C 64.400 61.938
*N chany_top_in[2]:18 *C 63.940 69.020
*N chany_top_in[2]:19 *C 63.940 69.020
*N chany_top_in[2]:20 *C 64.400 69.020
*N chany_top_in[2]:21 *C 64.860 69.020
*N chany_top_in[2]:22 *C 64.860 89.023
*N chany_top_in[2]:23 *C 64.853 89.080
*N chany_top_in[2]:24 *C 53.367 89.080
*N chany_top_in[2]:25 *C 53.360 89.138

*CAP
0 chany_top_in[2] 0.0004577066
1 mux_right_track_0\/mux_l1_in_0_:A1 1e-06
2 BUFT_P_96:A 1e-06
3 mux_bottom_track_1\/mux_l1_in_0_:A1 1e-06
4 chany_top_in[2]:4 2.57106e-05
5 chany_top_in[2]:5 0.0003682199
6 chany_top_in[2]:6 0.0003682199
7 chany_top_in[2]:7 0.001525577
8 chany_top_in[2]:8 3.903416e-05
9 chany_top_in[2]:9 0.0002807375
10 chany_top_in[2]:10 0.0002807375
11 chany_top_in[2]:11 0.001929304
12 chany_top_in[2]:12 0.0004037273
13 chany_top_in[2]:13 0.001758237
14 chany_top_in[2]:14 0.001758237
15 chany_top_in[2]:15 0.0002368636
16 chany_top_in[2]:16 0.0002368636
17 chany_top_in[2]:17 0.000402013
18 chany_top_in[2]:18 3.250122e-05
19 chany_top_in[2]:19 6.581978e-05
20 chany_top_in[2]:20 0.0004624481
21 chany_top_in[2]:21 0.001005613
22 chany_top_in[2]:22 0.0009770142
23 chany_top_in[2]:23 0.0007313369
24 chany_top_in[2]:24 0.0007313369
25 chany_top_in[2]:25 0.0004577066
26 chany_top_in[2]:7 chany_top_in[16]:19 2.359076e-05
27 chany_top_in[2]:7 chany_top_in[16]:12 0.0003708529
28 chany_top_in[2]:12 chany_top_in[16]:18 1.03632e-07
29 chany_top_in[2]:11 chany_top_in[16]:19 1.03632e-07
30 chany_top_in[2]:11 chany_top_in[16]:18 2.359076e-05
31 chany_top_in[2]:11 chany_top_in[16]:13 0.0003708529
32 chany_top_in[2]:7 chany_bottom_in[1]:29 0.0004500256
33 chany_top_in[2]:12 chany_bottom_in[1]:28 6.667083e-05
34 chany_top_in[2]:13 chany_bottom_in[1]:27 4.145643e-05
35 chany_top_in[2]:14 chany_bottom_in[1]:26 4.145643e-05
36 chany_top_in[2]:11 chany_bottom_in[1]:28 0.0004500256
37 chany_top_in[2]:11 chany_bottom_in[1]:29 6.667083e-05
38 chany_top_in[2]:13 chany_bottom_in[2]:25 0.001707604
39 chany_top_in[2]:13 chany_bottom_in[2]:24 0.0004981882
40 chany_top_in[2]:15 chany_bottom_in[2]:17 4.324924e-06
41 chany_top_in[2]:14 chany_bottom_in[2]:18 0.0004981882
42 chany_top_in[2]:14 chany_bottom_in[2]:24 0.001707604
43 chany_top_in[2]:16 chany_bottom_in[2]:16 4.324924e-06
44 chany_top_in[2]:23 chany_bottom_in[2]:11 9.488893e-06
45 chany_top_in[2]:24 chany_bottom_in[2]:10 9.488893e-06
46 chany_top_in[2]:13 chany_bottom_in[11]:9 0.0003326248
47 chany_top_in[2]:14 chany_bottom_in[11]:8 0.0003326248
48 chany_top_in[2]:15 mux_right_track_8/sky130_fd_sc_hd__mux2_1_3_X[0]:7 0.0002603675
49 chany_top_in[2]:16 mux_right_track_8/sky130_fd_sc_hd__mux2_1_3_X[0]:6 0.0002603675
50 chany_top_in[2]:22 mux_right_track_2/sky130_fd_sc_hd__mux2_1_4_X[0]:7 2.104461e-05
51 chany_top_in[2]:22 mux_right_track_2/sky130_fd_sc_hd__mux2_1_4_X[0]:11 8.311127e-05
52 chany_top_in[2]:22 mux_right_track_2/sky130_fd_sc_hd__mux2_1_4_X[0]:5 8.636317e-07
53 chany_top_in[2]:21 mux_right_track_2/sky130_fd_sc_hd__mux2_1_4_X[0]:4 8.636317e-07
54 chany_top_in[2]:21 mux_right_track_2/sky130_fd_sc_hd__mux2_1_4_X[0]:10 8.311127e-05
55 chany_top_in[2]:21 mux_right_track_2/sky130_fd_sc_hd__mux2_1_4_X[0]:6 2.104461e-05
56 chany_top_in[2]:13 mux_right_track_4/sky130_fd_sc_hd__mux2_1_6_X[0]:9 0.0002481532
57 chany_top_in[2]:14 mux_right_track_4/sky130_fd_sc_hd__mux2_1_6_X[0]:10 0.0002481532
58 chany_top_in[2] ropt_net_155:3 6.075199e-05
59 chany_top_in[2]:25 ropt_net_155:4 6.075199e-05

*RES
0 chany_top_in[2] chany_top_in[2]:25 0.006689732
1 chany_top_in[2]:6 chany_top_in[2]:5 0.00567634
2 chany_top_in[2]:7 chany_top_in[2]:6 0.00341
3 chany_top_in[2]:4 mux_bottom_track_1\/mux_l1_in_0_:A1 0.152
4 chany_top_in[2]:5 chany_top_in[2]:4 0.0045
5 chany_top_in[2]:12 chany_top_in[2]:11 0.0009337334
6 chany_top_in[2]:13 chany_top_in[2]:12 0.00341
7 chany_top_in[2]:15 chany_top_in[2]:14 0.00341
8 chany_top_in[2]:14 chany_top_in[2]:13 0.007881116
9 chany_top_in[2]:17 chany_top_in[2]:16 0.00341
10 chany_top_in[2]:16 chany_top_in[2]:15 0.0007163583
11 chany_top_in[2]:10 chany_top_in[2]:9 0.004158482
12 chany_top_in[2]:11 chany_top_in[2]:10 0.00341
13 chany_top_in[2]:11 chany_top_in[2]:7 0.004755225
14 chany_top_in[2]:8 BUFT_P_96:A 0.152
15 chany_top_in[2]:9 chany_top_in[2]:8 0.0045
16 chany_top_in[2]:22 chany_top_in[2]:21 0.01785938
17 chany_top_in[2]:23 chany_top_in[2]:22 0.00341
18 chany_top_in[2]:25 chany_top_in[2]:24 0.00341
19 chany_top_in[2]:24 chany_top_in[2]:23 0.001799317
20 chany_top_in[2]:18 mux_right_track_0\/mux_l1_in_0_:A1 0.152
21 chany_top_in[2]:19 chany_top_in[2]:18 0.0045
22 chany_top_in[2]:20 chany_top_in[2]:19 0.0004107143
23 chany_top_in[2]:20 chany_top_in[2]:17 0.006323661
24 chany_top_in[2]:21 chany_top_in[2]:20 0.0004107143

*END

*D_NET mux_right_track_4/sky130_fd_sc_hd__mux2_1_5_X[0] 0.000638624 //LENGTH 5.225 LUMPCC 0 DR

*CONN
*I mux_right_track_4\/mux_l2_in_1_:X O *L 0 *C 54.565 80.580
*I mux_right_track_4\/mux_l3_in_0_:A0 I *L 0.001631 *C 57.160 82.280
*N mux_right_track_4/sky130_fd_sc_hd__mux2_1_5_X[0]:2 *C 57.123 82.280
*N mux_right_track_4/sky130_fd_sc_hd__mux2_1_5_X[0]:3 *C 56.625 82.280
*N mux_right_track_4/sky130_fd_sc_hd__mux2_1_5_X[0]:4 *C 56.580 82.235
*N mux_right_track_4/sky130_fd_sc_hd__mux2_1_5_X[0]:5 *C 56.580 80.625
*N mux_right_track_4/sky130_fd_sc_hd__mux2_1_5_X[0]:6 *C 56.535 80.580
*N mux_right_track_4/sky130_fd_sc_hd__mux2_1_5_X[0]:7 *C 54.602 80.580

*CAP
0 mux_right_track_4\/mux_l2_in_1_:X 1e-06
1 mux_right_track_4\/mux_l3_in_0_:A0 1e-06
2 mux_right_track_4/sky130_fd_sc_hd__mux2_1_5_X[0]:2 5.914808e-05
3 mux_right_track_4/sky130_fd_sc_hd__mux2_1_5_X[0]:3 5.914808e-05
4 mux_right_track_4/sky130_fd_sc_hd__mux2_1_5_X[0]:4 0.0001104785
5 mux_right_track_4/sky130_fd_sc_hd__mux2_1_5_X[0]:5 0.0001104785
6 mux_right_track_4/sky130_fd_sc_hd__mux2_1_5_X[0]:6 0.0001486854
7 mux_right_track_4/sky130_fd_sc_hd__mux2_1_5_X[0]:7 0.0001486854

*RES
0 mux_right_track_4\/mux_l2_in_1_:X mux_right_track_4/sky130_fd_sc_hd__mux2_1_5_X[0]:7 0.152
1 mux_right_track_4/sky130_fd_sc_hd__mux2_1_5_X[0]:7 mux_right_track_4/sky130_fd_sc_hd__mux2_1_5_X[0]:6 0.001725447
2 mux_right_track_4/sky130_fd_sc_hd__mux2_1_5_X[0]:6 mux_right_track_4/sky130_fd_sc_hd__mux2_1_5_X[0]:5 0.0045
3 mux_right_track_4/sky130_fd_sc_hd__mux2_1_5_X[0]:5 mux_right_track_4/sky130_fd_sc_hd__mux2_1_5_X[0]:4 0.0014375
4 mux_right_track_4/sky130_fd_sc_hd__mux2_1_5_X[0]:3 mux_right_track_4/sky130_fd_sc_hd__mux2_1_5_X[0]:2 0.0004441965
5 mux_right_track_4/sky130_fd_sc_hd__mux2_1_5_X[0]:4 mux_right_track_4/sky130_fd_sc_hd__mux2_1_5_X[0]:3 0.0045
6 mux_right_track_4/sky130_fd_sc_hd__mux2_1_5_X[0]:2 mux_right_track_4\/mux_l3_in_0_:A0 0.152

*END

*D_NET mux_right_track_18/sky130_fd_sc_hd__mux2_1_2_X[0] 0.006534493 //LENGTH 36.265 LUMPCC 0.002971932 DR

*CONN
*I mux_right_track_18\/mux_l2_in_0_:X O *L 0 *C 43.065 60.520
*I mux_right_track_18\/sky130_fd_sc_hd__buf_4_0_:A I *L 0.002576 *C 74.715 61.000
*N mux_right_track_18/sky130_fd_sc_hd__mux2_1_2_X[0]:2 *C 74.678 60.908
*N mux_right_track_18/sky130_fd_sc_hd__mux2_1_2_X[0]:3 *C 73.185 60.860
*N mux_right_track_18/sky130_fd_sc_hd__mux2_1_2_X[0]:4 *C 73.140 60.815
*N mux_right_track_18/sky130_fd_sc_hd__mux2_1_2_X[0]:5 *C 73.140 59.218
*N mux_right_track_18/sky130_fd_sc_hd__mux2_1_2_X[0]:6 *C 73.133 59.160
*N mux_right_track_18/sky130_fd_sc_hd__mux2_1_2_X[0]:7 *C 45.547 59.160
*N mux_right_track_18/sky130_fd_sc_hd__mux2_1_2_X[0]:8 *C 45.540 59.218
*N mux_right_track_18/sky130_fd_sc_hd__mux2_1_2_X[0]:9 *C 45.540 60.475
*N mux_right_track_18/sky130_fd_sc_hd__mux2_1_2_X[0]:10 *C 45.495 60.520
*N mux_right_track_18/sky130_fd_sc_hd__mux2_1_2_X[0]:11 *C 43.102 60.520

*CAP
0 mux_right_track_18\/mux_l2_in_0_:X 1e-06
1 mux_right_track_18\/sky130_fd_sc_hd__buf_4_0_:A 1e-06
2 mux_right_track_18/sky130_fd_sc_hd__mux2_1_2_X[0]:2 0.0001148743
3 mux_right_track_18/sky130_fd_sc_hd__mux2_1_2_X[0]:3 0.0001148743
4 mux_right_track_18/sky130_fd_sc_hd__mux2_1_2_X[0]:4 0.0001098554
5 mux_right_track_18/sky130_fd_sc_hd__mux2_1_2_X[0]:5 0.0001098554
6 mux_right_track_18/sky130_fd_sc_hd__mux2_1_2_X[0]:6 0.001329095
7 mux_right_track_18/sky130_fd_sc_hd__mux2_1_2_X[0]:7 0.001329095
8 mux_right_track_18/sky130_fd_sc_hd__mux2_1_2_X[0]:8 6.804334e-05
9 mux_right_track_18/sky130_fd_sc_hd__mux2_1_2_X[0]:9 6.804334e-05
10 mux_right_track_18/sky130_fd_sc_hd__mux2_1_2_X[0]:10 0.0001584121
11 mux_right_track_18/sky130_fd_sc_hd__mux2_1_2_X[0]:11 0.0001584121
12 mux_right_track_18/sky130_fd_sc_hd__mux2_1_2_X[0]:4 chany_bottom_in[1]:18 5.712849e-08
13 mux_right_track_18/sky130_fd_sc_hd__mux2_1_2_X[0]:5 chany_bottom_in[1]:19 5.712849e-08
14 mux_right_track_18/sky130_fd_sc_hd__mux2_1_2_X[0]:6 chany_bottom_in[1]:20 0.000248641
15 mux_right_track_18/sky130_fd_sc_hd__mux2_1_2_X[0]:7 chany_bottom_in[1]:21 0.000248641
16 mux_right_track_18/sky130_fd_sc_hd__mux2_1_2_X[0]:6 mux_tree_tapbuf_size3_0_sram[1]:10 0.0001039455
17 mux_right_track_18/sky130_fd_sc_hd__mux2_1_2_X[0]:6 mux_tree_tapbuf_size3_0_sram[1]:11 0.0003067333
18 mux_right_track_18/sky130_fd_sc_hd__mux2_1_2_X[0]:7 mux_tree_tapbuf_size3_0_sram[1]:5 0.0001039455
19 mux_right_track_18/sky130_fd_sc_hd__mux2_1_2_X[0]:7 mux_tree_tapbuf_size3_0_sram[1]:10 0.0003067333
20 mux_right_track_18/sky130_fd_sc_hd__mux2_1_2_X[0]:6 mux_tree_tapbuf_size3_1_sram[0]:17 0.0005176813
21 mux_right_track_18/sky130_fd_sc_hd__mux2_1_2_X[0]:8 mux_tree_tapbuf_size3_1_sram[0]:15 4.39977e-05
22 mux_right_track_18/sky130_fd_sc_hd__mux2_1_2_X[0]:7 mux_tree_tapbuf_size3_1_sram[0]:16 0.0005176813
23 mux_right_track_18/sky130_fd_sc_hd__mux2_1_2_X[0]:9 mux_tree_tapbuf_size3_1_sram[0]:14 4.39977e-05
24 mux_right_track_18/sky130_fd_sc_hd__mux2_1_2_X[0]:6 mux_right_track_8/sky130_fd_sc_hd__mux2_1_3_X[0]:6 0.0002080095
25 mux_right_track_18/sky130_fd_sc_hd__mux2_1_2_X[0]:7 mux_right_track_8/sky130_fd_sc_hd__mux2_1_3_X[0]:7 0.0002080095
26 mux_right_track_18/sky130_fd_sc_hd__mux2_1_2_X[0]:10 mux_right_track_18/sky130_fd_sc_hd__mux2_1_1_X[0]:3 5.69004e-05
27 mux_right_track_18/sky130_fd_sc_hd__mux2_1_2_X[0]:11 mux_right_track_18/sky130_fd_sc_hd__mux2_1_1_X[0]:2 5.69004e-05

*RES
0 mux_right_track_18\/mux_l2_in_0_:X mux_right_track_18/sky130_fd_sc_hd__mux2_1_2_X[0]:11 0.152
1 mux_right_track_18/sky130_fd_sc_hd__mux2_1_2_X[0]:2 mux_right_track_18\/sky130_fd_sc_hd__buf_4_0_:A 0.152
2 mux_right_track_18/sky130_fd_sc_hd__mux2_1_2_X[0]:3 mux_right_track_18/sky130_fd_sc_hd__mux2_1_2_X[0]:2 0.001332589
3 mux_right_track_18/sky130_fd_sc_hd__mux2_1_2_X[0]:4 mux_right_track_18/sky130_fd_sc_hd__mux2_1_2_X[0]:3 0.0045
4 mux_right_track_18/sky130_fd_sc_hd__mux2_1_2_X[0]:5 mux_right_track_18/sky130_fd_sc_hd__mux2_1_2_X[0]:4 0.001426339
5 mux_right_track_18/sky130_fd_sc_hd__mux2_1_2_X[0]:6 mux_right_track_18/sky130_fd_sc_hd__mux2_1_2_X[0]:5 0.00341
6 mux_right_track_18/sky130_fd_sc_hd__mux2_1_2_X[0]:8 mux_right_track_18/sky130_fd_sc_hd__mux2_1_2_X[0]:7 0.00341
7 mux_right_track_18/sky130_fd_sc_hd__mux2_1_2_X[0]:7 mux_right_track_18/sky130_fd_sc_hd__mux2_1_2_X[0]:6 0.00432165
8 mux_right_track_18/sky130_fd_sc_hd__mux2_1_2_X[0]:10 mux_right_track_18/sky130_fd_sc_hd__mux2_1_2_X[0]:9 0.0045
9 mux_right_track_18/sky130_fd_sc_hd__mux2_1_2_X[0]:9 mux_right_track_18/sky130_fd_sc_hd__mux2_1_2_X[0]:8 0.001122768
10 mux_right_track_18/sky130_fd_sc_hd__mux2_1_2_X[0]:11 mux_right_track_18/sky130_fd_sc_hd__mux2_1_2_X[0]:10 0.002136161

*END

*D_NET ropt_net_151 0.001334318 //LENGTH 9.780 LUMPCC 0 DR

*CONN
*I ropt_mt_inst_724:X O *L 0 *C 36.535 6.120
*I ropt_mt_inst_743:A I *L 0.001767 *C 28.060 6.800
*N ropt_net_151:2 *C 28.060 6.800
*N ropt_net_151:3 *C 28.060 6.755
*N ropt_net_151:4 *C 28.060 6.165
*N ropt_net_151:5 *C 28.105 6.120
*N ropt_net_151:6 *C 36.498 6.120

*CAP
0 ropt_mt_inst_724:X 1e-06
1 ropt_mt_inst_743:A 1e-06
2 ropt_net_151:2 3.732552e-05
3 ropt_net_151:3 5.420628e-05
4 ropt_net_151:4 5.420628e-05
5 ropt_net_151:5 0.0005932901
6 ropt_net_151:6 0.0005932901

*RES
0 ropt_mt_inst_724:X ropt_net_151:6 0.152
1 ropt_net_151:2 ropt_mt_inst_743:A 0.152
2 ropt_net_151:3 ropt_net_151:2 0.0045
3 ropt_net_151:5 ropt_net_151:4 0.0045
4 ropt_net_151:4 ropt_net_151:3 0.0005267857
5 ropt_net_151:6 ropt_net_151:5 0.007493304

*END

*D_NET chany_bottom_out[19] 0.002118547 //LENGTH 15.710 LUMPCC 0 DR

*CONN
*I ropt_mt_inst_736:X O *L 0 *C 32.395 11.560
*P chany_bottom_out[19] O *L 0.7423 *C 28.060 1.290
*N chany_bottom_out[19]:2 *C 28.060 1.995
*N chany_bottom_out[19]:3 *C 28.105 2.040
*N chany_bottom_out[19]:4 *C 31.695 2.040
*N chany_bottom_out[19]:5 *C 31.740 2.085
*N chany_bottom_out[19]:6 *C 31.740 11.515
*N chany_bottom_out[19]:7 *C 31.785 11.560
*N chany_bottom_out[19]:8 *C 32.358 11.560

*CAP
0 ropt_mt_inst_736:X 1e-06
1 chany_bottom_out[19] 6.276656e-05
2 chany_bottom_out[19]:2 6.276656e-05
3 chany_bottom_out[19]:3 0.0003315682
4 chany_bottom_out[19]:4 0.0003315682
5 chany_bottom_out[19]:5 0.0005900824
6 chany_bottom_out[19]:6 0.0005900824
7 chany_bottom_out[19]:7 7.435615e-05
8 chany_bottom_out[19]:8 7.435615e-05

*RES
0 ropt_mt_inst_736:X chany_bottom_out[19]:8 0.152
1 chany_bottom_out[19]:8 chany_bottom_out[19]:7 0.0005111608
2 chany_bottom_out[19]:7 chany_bottom_out[19]:6 0.0045
3 chany_bottom_out[19]:6 chany_bottom_out[19]:5 0.008419643
4 chany_bottom_out[19]:4 chany_bottom_out[19]:3 0.003205357
5 chany_bottom_out[19]:5 chany_bottom_out[19]:4 0.0045
6 chany_bottom_out[19]:3 chany_bottom_out[19]:2 0.0045
7 chany_bottom_out[19]:2 chany_bottom_out[19] 0.0006294643

*END

*D_NET chanx_right_out[14] 0.001353549 //LENGTH 11.040 LUMPCC 0.0001210708 DR

*CONN
*I ropt_mt_inst_749:X O *L 0 *C 77.015 23.800
*P chanx_right_out[14] O *L 0.7423 *C 83.410 23.120
*N chanx_right_out[14]:2 *C 75.448 23.120
*N chanx_right_out[14]:3 *C 75.440 23.178
*N chanx_right_out[14]:4 *C 75.440 23.755
*N chanx_right_out[14]:5 *C 75.485 23.800
*N chanx_right_out[14]:6 *C 76.978 23.800

*CAP
0 ropt_mt_inst_749:X 1e-06
1 chanx_right_out[14] 0.0004803545
2 chanx_right_out[14]:2 0.0004803545
3 chanx_right_out[14]:3 5.418032e-05
4 chanx_right_out[14]:4 5.418032e-05
5 chanx_right_out[14]:5 8.120429e-05
6 chanx_right_out[14]:6 8.120429e-05
7 chanx_right_out[14]:6 ropt_net_156:5 6.053539e-05
8 chanx_right_out[14]:5 ropt_net_156:4 6.053539e-05

*RES
0 ropt_mt_inst_749:X chanx_right_out[14]:6 0.152
1 chanx_right_out[14]:6 chanx_right_out[14]:5 0.001332589
2 chanx_right_out[14]:5 chanx_right_out[14]:4 0.0045
3 chanx_right_out[14]:4 chanx_right_out[14]:3 0.000515625
4 chanx_right_out[14]:3 chanx_right_out[14]:2 0.00341
5 chanx_right_out[14]:2 chanx_right_out[14] 0.001247458

*END

*D_NET chany_top_in[17] 0.01933453 //LENGTH 144.027 LUMPCC 0.006226121 DR

*CONN
*P chany_top_in[17] I *L 0.29796 *C 14.720 96.710
*I mux_right_track_22\/mux_l1_in_0_:A1 I *L 0.00198 *C 28.160 69.020
*I mux_bottom_track_17\/mux_l1_in_0_:A0 I *L 0.001631 *C 59.975 39.100
*I BUFT_RR_69:A I *L 0.001776 *C 17.940 20.400
*N chany_top_in[17]:4 *C 17.902 20.400
*N chany_top_in[17]:5 *C 16.605 20.400
*N chany_top_in[17]:6 *C 16.560 20.400
*N chany_top_in[17]:7 *C 16.553 20.400
*N chany_top_in[17]:8 *C 15.660 20.400
*N chany_top_in[17]:9 *C 15.640 20.408
*N chany_top_in[17]:10 *C 59.975 39.100
*N chany_top_in[17]:11 *C 60.260 39.100
*N chany_top_in[17]:12 *C 60.260 39.145
*N chany_top_in[17]:13 *C 60.260 41.422
*N chany_top_in[17]:14 *C 60.253 41.480
*N chany_top_in[17]:15 *C 15.660 41.480
*N chany_top_in[17]:16 *C 15.640 41.480
*N chany_top_in[17]:17 *C 28.123 69.020
*N chany_top_in[17]:18 *C 27.645 69.020
*N chany_top_in[17]:19 *C 27.600 68.975
*N chany_top_in[17]:20 *C 27.600 67.377
*N chany_top_in[17]:21 *C 27.593 67.320
*N chany_top_in[17]:22 *C 15.660 67.320
*N chany_top_in[17]:23 *C 15.640 67.312
*N chany_top_in[17]:24 *C 14.720 67.320

*CAP
0 chany_top_in[17] 0.001283622
1 mux_right_track_22\/mux_l1_in_0_:A1 1e-06
2 mux_bottom_track_17\/mux_l1_in_0_:A0 1e-06
3 BUFT_RR_69:A 1e-06
4 chany_top_in[17]:4 0.0001013657
5 chany_top_in[17]:5 0.0001013657
6 chany_top_in[17]:6 3.513611e-05
7 chany_top_in[17]:7 8.313737e-05
8 chany_top_in[17]:8 8.313737e-05
9 chany_top_in[17]:9 0.000828073
10 chany_top_in[17]:10 4.945351e-05
11 chany_top_in[17]:11 5.25933e-05
12 chany_top_in[17]:12 0.0001070821
13 chany_top_in[17]:13 0.0001070821
14 chany_top_in[17]:14 0.00237011
15 chany_top_in[17]:15 0.00237011
16 chany_top_in[17]:16 0.00154386
17 chany_top_in[17]:17 6.050722e-05
18 chany_top_in[17]:18 6.050722e-05
19 chany_top_in[17]:19 0.0001176222
20 chany_top_in[17]:20 0.0001176222
21 chany_top_in[17]:21 0.0007708669
22 chany_top_in[17]:22 0.0007708669
23 chany_top_in[17]:23 0.000761727
24 chany_top_in[17]:24 0.001329562
25 chany_top_in[17]:20 chany_top_in[8]:11 1.164638e-06
26 chany_top_in[17]:19 chany_top_in[8]:6 1.164638e-06
27 chany_top_in[17]:15 chany_top_in[8]:12 0.0005211673
28 chany_top_in[17]:15 chany_top_in[8]:17 2.169293e-05
29 chany_top_in[17]:13 chany_top_in[8]:15 5.768014e-07
30 chany_top_in[17]:14 chany_top_in[8]:17 0.0005211673
31 chany_top_in[17]:14 chany_top_in[8]:18 2.169293e-05
32 chany_top_in[17]:11 chany_top_in[8]:13 3.668199e-06
33 chany_top_in[17]:12 chany_top_in[8]:16 5.768014e-07
34 chany_top_in[17]:10 chany_top_in[8]:14 3.668199e-06
35 chany_top_in[17]:23 chany_bottom_in[9]:28 5.01043e-05
36 chany_top_in[17]:16 chany_bottom_in[9]:28 0.0003034515
37 chany_top_in[17]:16 chany_bottom_in[9]:29 5.01043e-05
38 chany_top_in[17]:9 chany_bottom_in[9]:29 0.0003034515
39 chany_top_in[17]:22 chany_bottom_in[18]:15 1.587012e-05
40 chany_top_in[17]:22 chany_bottom_in[18]:16 3.222398e-06
41 chany_top_in[17]:23 chany_bottom_in[18]:15 1.056065e-05
42 chany_top_in[17]:23 chany_bottom_in[18]:17 0.000278056
43 chany_top_in[17]:21 chany_bottom_in[18]:15 3.222398e-06
44 chany_top_in[17]:21 chany_bottom_in[18]:11 1.587012e-05
45 chany_top_in[17]:15 chany_bottom_in[18]:19 3.617415e-05
46 chany_top_in[17]:16 chany_bottom_in[18]:18 0.000278056
47 chany_top_in[17]:14 chany_bottom_in[18]:20 3.617415e-05
48 chany_top_in[17]:24 chany_bottom_in[18]:16 1.056065e-05
49 chany_top_in[17]:15 chanx_right_in[11]:9 0.001267044
50 chany_top_in[17]:14 chanx_right_in[11]:10 0.001267044
51 chany_top_in[17] chanx_right_in[19]:15 3.226353e-05
52 chany_top_in[17]:22 chanx_right_in[19]:16 4.189847e-05
53 chany_top_in[17]:23 chanx_right_in[19]:15 0.0004595991
54 chany_top_in[17]:21 chanx_right_in[19]:17 4.189847e-05
55 chany_top_in[17]:16 chanx_right_in[19]:14 0.0004595991
56 chany_top_in[17]:24 chanx_right_in[19]:14 3.226353e-05
57 chany_top_in[17]:13 mux_top_track_2/sky130_fd_sc_hd__mux2_1_4_X[0]:4 6.654634e-05
58 chany_top_in[17]:12 mux_top_track_2/sky130_fd_sc_hd__mux2_1_4_X[0]:5 6.654634e-05

*RES
0 chany_top_in[17] chany_top_in[17]:24 0.004604433
1 chany_top_in[17]:22 chany_top_in[17]:21 0.001869425
2 chany_top_in[17]:23 chany_top_in[17]:22 0.00341
3 chany_top_in[17]:23 chany_top_in[17]:16 0.004047091
4 chany_top_in[17]:20 chany_top_in[17]:19 0.001426339
5 chany_top_in[17]:21 chany_top_in[17]:20 0.00341
6 chany_top_in[17]:18 chany_top_in[17]:17 0.0004263393
7 chany_top_in[17]:19 chany_top_in[17]:18 0.0045
8 chany_top_in[17]:17 mux_right_track_22\/mux_l1_in_0_:A1 0.152
9 chany_top_in[17]:15 chany_top_in[17]:14 0.006986158
10 chany_top_in[17]:16 chany_top_in[17]:15 0.00341
11 chany_top_in[17]:16 chany_top_in[17]:9 0.003301358
12 chany_top_in[17]:13 chany_top_in[17]:12 0.002033482
13 chany_top_in[17]:14 chany_top_in[17]:13 0.00341
14 chany_top_in[17]:11 chany_top_in[17]:10 0.0001548913
15 chany_top_in[17]:12 chany_top_in[17]:11 0.0045
16 chany_top_in[17]:10 mux_bottom_track_17\/mux_l1_in_0_:A0 0.152
17 chany_top_in[17]:8 chany_top_in[17]:7 0.000139825
18 chany_top_in[17]:9 chany_top_in[17]:8 0.00341
19 chany_top_in[17]:6 chany_top_in[17]:5 0.0045
20 chany_top_in[17]:7 chany_top_in[17]:6 0.00341
21 chany_top_in[17]:5 chany_top_in[17]:4 0.001158482
22 chany_top_in[17]:4 BUFT_RR_69:A 0.152
23 chany_top_in[17]:24 chany_top_in[17]:23 0.0001441333

*END

*D_NET mux_tree_tapbuf_size3_mem_3_ccff_tail[0] 0.00122174 //LENGTH 7.715 LUMPCC 0.0001827296 DR

*CONN
*I mem_right_track_22\/FTB_26__56:X O *L 0 *C 19.545 60.520
*I mem_right_track_24\/sky130_fd_sc_hd__dfxbp_1_0_:D I *L 0.001695 *C 17.655 55.420
*N mux_tree_tapbuf_size3_mem_3_ccff_tail[0]:2 *C 17.655 55.420
*N mux_tree_tapbuf_size3_mem_3_ccff_tail[0]:3 *C 17.940 55.420
*N mux_tree_tapbuf_size3_mem_3_ccff_tail[0]:4 *C 17.940 55.420
*N mux_tree_tapbuf_size3_mem_3_ccff_tail[0]:5 *C 17.940 55.760
*N mux_tree_tapbuf_size3_mem_3_ccff_tail[0]:6 *C 17.948 55.760
*N mux_tree_tapbuf_size3_mem_3_ccff_tail[0]:7 *C 19.312 55.760
*N mux_tree_tapbuf_size3_mem_3_ccff_tail[0]:8 *C 19.320 55.818
*N mux_tree_tapbuf_size3_mem_3_ccff_tail[0]:9 *C 19.320 60.475
*N mux_tree_tapbuf_size3_mem_3_ccff_tail[0]:10 *C 19.320 60.520
*N mux_tree_tapbuf_size3_mem_3_ccff_tail[0]:11 *C 19.545 60.520

*CAP
0 mem_right_track_22\/FTB_26__56:X 1e-06
1 mem_right_track_24\/sky130_fd_sc_hd__dfxbp_1_0_:D 1e-06
2 mux_tree_tapbuf_size3_mem_3_ccff_tail[0]:2 5.378214e-05
3 mux_tree_tapbuf_size3_mem_3_ccff_tail[0]:3 5.872536e-05
4 mux_tree_tapbuf_size3_mem_3_ccff_tail[0]:4 5.31458e-05
5 mux_tree_tapbuf_size3_mem_3_ccff_tail[0]:5 5.720478e-05
6 mux_tree_tapbuf_size3_mem_3_ccff_tail[0]:6 7.788547e-05
7 mux_tree_tapbuf_size3_mem_3_ccff_tail[0]:7 7.788547e-05
8 mux_tree_tapbuf_size3_mem_3_ccff_tail[0]:8 0.0002746044
9 mux_tree_tapbuf_size3_mem_3_ccff_tail[0]:9 0.0002746044
10 mux_tree_tapbuf_size3_mem_3_ccff_tail[0]:10 5.573617e-05
11 mux_tree_tapbuf_size3_mem_3_ccff_tail[0]:11 5.343621e-05
12 mux_tree_tapbuf_size3_mem_3_ccff_tail[0]:7 mux_tree_tapbuf_size4_0_sram[0]:9 9.136482e-05
13 mux_tree_tapbuf_size3_mem_3_ccff_tail[0]:6 mux_tree_tapbuf_size4_0_sram[0]:10 9.136482e-05

*RES
0 mem_right_track_22\/FTB_26__56:X mux_tree_tapbuf_size3_mem_3_ccff_tail[0]:11 0.152
1 mux_tree_tapbuf_size3_mem_3_ccff_tail[0]:11 mux_tree_tapbuf_size3_mem_3_ccff_tail[0]:10 0.0001222826
2 mux_tree_tapbuf_size3_mem_3_ccff_tail[0]:10 mux_tree_tapbuf_size3_mem_3_ccff_tail[0]:9 0.0045
3 mux_tree_tapbuf_size3_mem_3_ccff_tail[0]:9 mux_tree_tapbuf_size3_mem_3_ccff_tail[0]:8 0.004158482
4 mux_tree_tapbuf_size3_mem_3_ccff_tail[0]:8 mux_tree_tapbuf_size3_mem_3_ccff_tail[0]:7 0.00341
5 mux_tree_tapbuf_size3_mem_3_ccff_tail[0]:7 mux_tree_tapbuf_size3_mem_3_ccff_tail[0]:6 0.00021385
6 mux_tree_tapbuf_size3_mem_3_ccff_tail[0]:5 mux_tree_tapbuf_size3_mem_3_ccff_tail[0]:4 0.0001634615
7 mux_tree_tapbuf_size3_mem_3_ccff_tail[0]:6 mux_tree_tapbuf_size3_mem_3_ccff_tail[0]:5 0.00341
8 mux_tree_tapbuf_size3_mem_3_ccff_tail[0]:3 mux_tree_tapbuf_size3_mem_3_ccff_tail[0]:2 0.0001440218
9 mux_tree_tapbuf_size3_mem_3_ccff_tail[0]:4 mux_tree_tapbuf_size3_mem_3_ccff_tail[0]:3 0.0045
10 mux_tree_tapbuf_size3_mem_3_ccff_tail[0]:2 mem_right_track_24\/sky130_fd_sc_hd__dfxbp_1_0_:D 0.152

*END

*D_NET mux_tree_tapbuf_size4_0_sram[2] 0.001191699 //LENGTH 10.060 LUMPCC 0 DR

*CONN
*I mem_top_track_24\/sky130_fd_sc_hd__dfxbp_1_2_:Q O *L 0 *C 10.425 63.920
*I mux_top_track_24\/mux_l3_in_0_:S I *L 0.00357 *C 12.980 61.880
*I mem_top_track_24\/FTB_13__43:A I *L 0.001746 *C 11.500 58.480
*N mux_tree_tapbuf_size4_0_sram[2]:3 *C 11.538 58.480
*N mux_tree_tapbuf_size4_0_sram[2]:4 *C 12.375 58.480
*N mux_tree_tapbuf_size4_0_sram[2]:5 *C 12.420 58.525
*N mux_tree_tapbuf_size4_0_sram[2]:6 *C 12.943 61.880
*N mux_tree_tapbuf_size4_0_sram[2]:7 *C 12.465 61.880
*N mux_tree_tapbuf_size4_0_sram[2]:8 *C 12.420 61.880
*N mux_tree_tapbuf_size4_0_sram[2]:9 *C 12.420 63.535
*N mux_tree_tapbuf_size4_0_sram[2]:10 *C 12.375 63.580
*N mux_tree_tapbuf_size4_0_sram[2]:11 *C 10.580 63.580
*N mux_tree_tapbuf_size4_0_sram[2]:12 *C 10.425 63.920

*CAP
0 mem_top_track_24\/sky130_fd_sc_hd__dfxbp_1_2_:Q 1e-06
1 mux_top_track_24\/mux_l3_in_0_:S 1e-06
2 mem_top_track_24\/FTB_13__43:A 1e-06
3 mux_tree_tapbuf_size4_0_sram[2]:3 8.88989e-05
4 mux_tree_tapbuf_size4_0_sram[2]:4 8.88989e-05
5 mux_tree_tapbuf_size4_0_sram[2]:5 0.0001775419
6 mux_tree_tapbuf_size4_0_sram[2]:6 5.616013e-05
7 mux_tree_tapbuf_size4_0_sram[2]:7 5.616013e-05
8 mux_tree_tapbuf_size4_0_sram[2]:8 0.0003000745