*SPEF "1481-1998"
*DESIGN "sb_0__0_"
*DATE "Tue Oct 27 11:35:06 2020"
*
*
*
*
*DIVIDER /
*DELIMITER :
*T_UNIT 1 NS
*C_UNIT 1 PF
*R_UNIT 1 KOHM
*L_UNIT 1 HENRY

// XY_UNIT 1 UM
// PARASITIC_TECH nominal at 25.000 degree

*PORTS
prog_clk[0] I *C 17.020 80.920
chany_top_in[0] I *C 45.080 80.920
chany_top_in[1] I *C 46.000 80.920
chany_top_in[2] I *C 53.360 80.920
chany_top_in[3] I *C 31.740 80.920
chany_top_in[4] I *C 28.980 80.920
chany_top_in[5] I *C 33.580 80.920
chany_top_in[6] I *C 49.680 80.920
chany_top_in[7] I *C 50.600 80.920
chany_top_in[8] I *C 63.940 80.920
chany_top_in[9] I *C 56.120 80.920
chany_top_in[10] I *C 27.140 80.920
chany_top_in[11] I *C 30.820 80.920
chany_top_in[12] I *C 57.040 80.920
chany_top_in[13] I *C 33.120 80.920
chany_top_in[14] I *C 12.880 80.920
chany_top_in[15] I *C 47.840 80.920
chany_top_in[16] I *C 42.320 80.920
chany_top_in[17] I *C 14.720 80.920
chany_top_in[18] I *C 46.000 80.920
chany_top_in[19] I *C 47.840 80.920
top_left_grid_pin_1_[0] I *C 2.300 80.920
chanx_right_in[0] I *C 83.950 17.680
chanx_right_in[1] I *C 83.950 14.960
chanx_right_in[2] I *C 83.950 29.240
chanx_right_in[3] I *C 83.950 8.160
chanx_right_in[4] I *C 83.950 12.240
chanx_right_in[5] I *C 83.950 6.800
chanx_right_in[6] I *C 83.950 38.080
chanx_right_in[7] I *C 83.950 42.160
chanx_right_in[8] I *C 83.950 13.600
chanx_right_in[9] I *C 83.950 46.240
chanx_right_in[10] I *C 83.950 19.040
chanx_right_in[11] I *C 83.950 16.320
chanx_right_in[12] I *C 83.950 31.960
chanx_right_in[13] I *C 83.950 59.840
chanx_right_in[14] I *C 83.950 24.480
chanx_right_in[15] I *C 83.950 33.320
chanx_right_in[16] I *C 83.950 9.520
chanx_right_in[17] I *C 83.950 40.800
chanx_right_in[18] I *C 83.950 51.680
chanx_right_in[19] I *C 83.950 48.960
right_top_grid_pin_42_[0] I *C 76.360 64.600
right_top_grid_pin_43_[0] I *C 63.020 80.920
right_top_grid_pin_44_[0] I *C 78.660 64.600
right_top_grid_pin_45_[0] I *C 81.880 64.600
right_top_grid_pin_46_[0] I *C 80.960 64.600
right_top_grid_pin_47_[0] I *C 77.280 64.600
right_top_grid_pin_48_[0] I *C 80.040 64.600
right_top_grid_pin_49_[0] I *C 80.040 64.600
right_bottom_grid_pin_1_[0] I *C 81.880 0.680
ccff_head[0] I *C 73.600 0.680
chany_top_out[0] O *C 42.320 80.920
chany_top_out[1] O *C 46.920 80.920
chany_top_out[2] O *C 43.240 80.920
chany_top_out[3] O *C 51.520 80.920
chany_top_out[4] O *C 32.660 80.920
chany_top_out[5] O *C 54.280 80.920
chany_top_out[6] O *C 4.600 80.920
chany_top_out[7] O *C 49.680 80.920
chany_top_out[8] O *C 6.440 80.920
chany_top_out[9] O *C 8.280 80.920
chany_top_out[10] O *C 48.760 80.920
chany_top_out[11] O *C 52.440 80.920
chany_top_out[12] O *C 7.820 80.920
chany_top_out[13] O *C 23.920 80.920
chany_top_out[14] O *C 8.740 80.920
chany_top_out[15] O *C 31.280 80.920
chany_top_out[16] O *C 28.060 80.920
chany_top_out[17] O *C 44.160 80.920
chany_top_out[18] O *C 29.440 80.920
chany_top_out[19] O *C 27.600 80.920
chanx_right_out[0] O *C 83.950 10.880
chanx_right_out[1] O *C 83.950 58.480
chanx_right_out[2] O *C 83.950 54.400
chanx_right_out[3] O *C 83.950 57.120
chanx_right_out[4] O *C 83.950 27.880
chanx_right_out[5] O *C 83.950 61.880
chanx_right_out[6] O *C 83.950 34.680
chanx_right_out[7] O *C 83.950 39.440
chanx_right_out[8] O *C 83.950 26.520
chanx_right_out[9] O *C 83.950 47.600
chanx_right_out[10] O *C 83.950 20.400
chanx_right_out[11] O *C 83.950 53.040
chanx_right_out[12] O *C 83.950 30.600
chanx_right_out[13] O *C 83.950 55.760
chanx_right_out[14] O *C 83.950 23.120
chanx_right_out[15] O *C 83.950 44.880
chanx_right_out[16] O *C 83.950 36.040
chanx_right_out[17] O *C 83.950 50.320
chanx_right_out[18] O *C 83.950 21.760
chanx_right_out[19] O *C 83.950 43.520
ccff_tail[0] O *C 0.690 65.280
VDD I *C 42.320 40.800
VSS I *C 42.320 40.800

*D_NET chany_top_in[14] 0.01280217 //LENGTH 93.915 LUMPCC 0.002446692 DR

*CONN
*P chany_top_in[14] I *L 0.29796 *C 12.880 80.390
*I BUFT_RR_44:A I *L 0.001767 *C 73.140 47.600
*N chany_top_in[14]:2 *C 73.140 47.600
*N chany_top_in[14]:3 *C 73.140 47.645
*N chany_top_in[14]:4 *C 73.140 52.303
*N chany_top_in[14]:5 *C 73.133 52.360
*N chany_top_in[14]:6 *C 62.690 52.360
*N chany_top_in[14]:7 *C 12.900 52.360
*N chany_top_in[14]:8 *C 12.880 52.367

*CAP
0 chany_top_in[14] 0.00103462
1 BUFT_RR_44:A 1e-06
2 chany_top_in[14]:2 3.89882e-05
3 chany_top_in[14]:3 0.000312357
4 chany_top_in[14]:4 0.000312357
5 chany_top_in[14]:5 0.0006059662
6 chany_top_in[14]:6 0.003810767
7 chany_top_in[14]:7 0.0032048
8 chany_top_in[14]:8 0.00103462
9 chany_top_in[14] chany_top_in[17] 0.0001962922
10 chany_top_in[14] chany_top_in[17]:9 0.0004710092
11 chany_top_in[14]:8 chany_top_in[17]:8 0.0004710092
12 chany_top_in[14]:8 chany_top_in[17]:9 0.0001962922
13 chany_top_in[14]:5 chanx_right_in[18] 0.0002992284
14 chany_top_in[14]:6 chanx_right_in[18]:12 0.0002992284
15 chany_top_in[14]:7 mux_right_track_22/sky130_fd_sc_hd__mux2_1_1_X[0]:7 0.000256816
16 chany_top_in[14]:6 mux_right_track_22/sky130_fd_sc_hd__mux2_1_1_X[0]:6 0.000256816

*RES
0 chany_top_in[14] chany_top_in[14]:8 0.004390191
1 chany_top_in[14]:2 BUFT_RR_44:A 0.152
2 chany_top_in[14]:3 chany_top_in[14]:2 0.0045
3 chany_top_in[14]:4 chany_top_in[14]:3 0.004158482
4 chany_top_in[14]:5 chany_top_in[14]:4 0.00341
5 chany_top_in[14]:7 chany_top_in[14]:6 0.007800433
6 chany_top_in[14]:8 chany_top_in[14]:7 0.00341
7 chany_top_in[14]:6 chany_top_in[14]:5 0.001635992

*END

*D_NET chanx_right_out[0] 0.002062469 //LENGTH 18.865 LUMPCC 0 DR

*CONN
*I mux_right_track_0\/sky130_fd_sc_hd__buf_4_0_:X O *L 0 *C 71.820 17.340
*P chanx_right_out[0] O *L 0.7423 *C 83.410 10.880
*N chanx_right_out[0]:2 *C 79.127 10.880
*N chanx_right_out[0]:3 *C 79.120 10.938
*N chanx_right_out[0]:4 *C 79.120 17.295
*N chanx_right_out[0]:5 *C 79.075 17.340
*N chanx_right_out[0]:6 *C 71.858 17.340

*CAP
0 mux_right_track_0\/sky130_fd_sc_hd__buf_4_0_:X 1e-06
1 chanx_right_out[0] 0.0003156861
2 chanx_right_out[0]:2 0.0003156861
3 chanx_right_out[0]:3 0.000331006
4 chanx_right_out[0]:4 0.000331006
5 chanx_right_out[0]:5 0.0003840422
6 chanx_right_out[0]:6 0.0003840422

*RES
0 mux_right_track_0\/sky130_fd_sc_hd__buf_4_0_:X chanx_right_out[0]:6 0.152
1 chanx_right_out[0]:6 chanx_right_out[0]:5 0.006444197
2 chanx_right_out[0]:5 chanx_right_out[0]:4 0.0045
3 chanx_right_out[0]:4 chanx_right_out[0]:3 0.005676339
4 chanx_right_out[0]:3 chanx_right_out[0]:2 0.00341
5 chanx_right_out[0]:2 chanx_right_out[0] 0.000670925

*END

*D_NET chanx_right_out[4] 0.001494675 //LENGTH 12.245 LUMPCC 0 DR

*CONN
*I mux_right_track_8\/sky130_fd_sc_hd__buf_4_0_:X O *L 0 *C 77.340 31.280
*P chanx_right_out[4] O *L 0.7423 *C 83.410 27.880
*N chanx_right_out[4]:2 *C 76.368 27.880
*N chanx_right_out[4]:3 *C 76.360 27.938
*N chanx_right_out[4]:4 *C 76.360 31.235
*N chanx_right_out[4]:5 *C 76.405 31.280
*N chanx_right_out[4]:6 *C 77.303 31.280

*CAP
0 mux_right_track_8\/sky130_fd_sc_hd__buf_4_0_:X 1e-06
1 chanx_right_out[4] 0.0004746394
2 chanx_right_out[4]:2 0.0004746394
3 chanx_right_out[4]:3 0.00020312
4 chanx_right_out[4]:4 0.00020312
5 chanx_right_out[4]:5 6.907831e-05
6 chanx_right_out[4]:6 6.907831e-05

*RES
0 mux_right_track_8\/sky130_fd_sc_hd__buf_4_0_:X chanx_right_out[4]:6 0.152
1 chanx_right_out[4]:3 chanx_right_out[4]:2 0.00341
2 chanx_right_out[4]:2 chanx_right_out[4] 0.001103325
3 chanx_right_out[4]:5 chanx_right_out[4]:4 0.0045
4 chanx_right_out[4]:4 chanx_right_out[4]:3 0.002944197
5 chanx_right_out[4]:6 chanx_right_out[4]:5 0.0008013393

*END

*D_NET chanx_right_out[10] 0.0007018671 //LENGTH 4.915 LUMPCC 0 DR

*CONN
*I mux_right_track_20\/sky130_fd_sc_hd__buf_4_0_:X O *L 0 *C 78.720 20.400
*P chanx_right_out[10] O *L 0.7423 *C 83.410 20.400
*N chanx_right_out[10]:2 *C 78.668 20.400
*N chanx_right_out[10]:3 *C 78.660 20.400
*N chanx_right_out[10]:4 *C 78.660 20.400

*CAP
0 mux_right_track_20\/sky130_fd_sc_hd__buf_4_0_:X 1e-06
1 chanx_right_out[10] 0.0003197945
2 chanx_right_out[10]:2 0.0003197945
3 chanx_right_out[10]:3 3.334714e-05
4 chanx_right_out[10]:4 2.793082e-05

*RES
0 mux_right_track_20\/sky130_fd_sc_hd__buf_4_0_:X chanx_right_out[10]:4 0.152
1 chanx_right_out[10]:4 chanx_right_out[10]:3 0.0045
2 chanx_right_out[10]:3 chanx_right_out[10]:2 0.00341
3 chanx_right_out[10]:2 chanx_right_out[10] 0.0007429916

*END

*D_NET mux_tree_tapbuf_size2_11_sram[0] 0.003858816 //LENGTH 30.135 LUMPCC 0.000395518 DR

*CONN
*I mem_right_track_26\/sky130_fd_sc_hd__dfxbp_1_0_:Q O *L 0 *C 32.045 66.300
*I mem_right_track_26\/sky130_fd_sc_hd__dfxbp_1_1_:D I *L 0.001695 *C 31.915 60.860
*I mux_right_track_26\/mux_l1_in_0_:S I *L 0.00357 *C 39.220 78.200
*N mux_tree_tapbuf_size2_11_sram[0]:3 *C 39.258 78.200
*N mux_tree_tapbuf_size2_11_sram[0]:4 *C 40.895 78.200
*N mux_tree_tapbuf_size2_11_sram[0]:5 *C 40.940 78.155
*N mux_tree_tapbuf_size2_11_sram[0]:6 *C 40.940 68.737
*N mux_tree_tapbuf_size2_11_sram[0]:7 *C 40.933 68.680
*N mux_tree_tapbuf_size2_11_sram[0]:8 *C 32.668 68.680
*N mux_tree_tapbuf_size2_11_sram[0]:9 *C 32.660 68.623
*N mux_tree_tapbuf_size2_11_sram[0]:10 *C 32.660 66.300
*N mux_tree_tapbuf_size2_11_sram[0]:11 *C 31.915 60.860
*N mux_tree_tapbuf_size2_11_sram[0]:12 *C 32.200 60.860
*N mux_tree_tapbuf_size2_11_sram[0]:13 *C 32.200 60.905
*N mux_tree_tapbuf_size2_11_sram[0]:14 *C 32.200 66.300
*N mux_tree_tapbuf_size2_11_sram[0]:15 *C 32.200 66.300
*N mux_tree_tapbuf_size2_11_sram[0]:16 *C 32.045 66.300

*CAP
0 mem_right_track_26\/sky130_fd_sc_hd__dfxbp_1_0_:Q 1e-06
1 mem_right_track_26\/sky130_fd_sc_hd__dfxbp_1_1_:D 1e-06
2 mux_right_track_26\/mux_l1_in_0_:S 1e-06
3 mux_tree_tapbuf_size2_11_sram[0]:3 0.0001476718
4 mux_tree_tapbuf_size2_11_sram[0]:4 0.0001476718
5 mux_tree_tapbuf_size2_11_sram[0]:5 0.0005468141
6 mux_tree_tapbuf_size2_11_sram[0]:6 0.0005468141
7 mux_tree_tapbuf_size2_11_sram[0]:7 0.0005763791
8 mux_tree_tapbuf_size2_11_sram[0]:8 0.0005763791
9 mux_tree_tapbuf_size2_11_sram[0]:9 9.493594e-05
10 mux_tree_tapbuf_size2_11_sram[0]:10 0.0001132118
11 mux_tree_tapbuf_size2_11_sram[0]:11 5.286833e-05
12 mux_tree_tapbuf_size2_11_sram[0]:12 5.551261e-05
13 mux_tree_tapbuf_size2_11_sram[0]:13 0.0002363271
14 mux_tree_tapbuf_size2_11_sram[0]:14 0.000254603
15 mux_tree_tapbuf_size2_11_sram[0]:15 5.534823e-05
16 mux_tree_tapbuf_size2_11_sram[0]:16 5.576052e-05
17 mux_tree_tapbuf_size2_11_sram[0]:13 mux_tree_tapbuf_size2_mem_4_ccff_tail[0]:4 9.912212e-05
18 mux_tree_tapbuf_size2_11_sram[0]:14 mux_tree_tapbuf_size2_mem_4_ccff_tail[0]:7 1.190803e-05
19 mux_tree_tapbuf_size2_11_sram[0]:14 mux_tree_tapbuf_size2_mem_4_ccff_tail[0]:5 9.912212e-05
20 mux_tree_tapbuf_size2_11_sram[0]:10 mux_tree_tapbuf_size2_mem_4_ccff_tail[0]:6 1.190803e-05
21 mux_tree_tapbuf_size2_11_sram[0]:9 mux_right_track_10/sky130_fd_sc_hd__mux2_1_1_X[0]:5 7.311694e-05
22 mux_tree_tapbuf_size2_11_sram[0]:13 mux_right_track_10/sky130_fd_sc_hd__mux2_1_1_X[0]:4 1.361192e-05
23 mux_tree_tapbuf_size2_11_sram[0]:14 mux_right_track_10/sky130_fd_sc_hd__mux2_1_1_X[0]:5 1.361192e-05
24 mux_tree_tapbuf_size2_11_sram[0]:10 mux_right_track_10/sky130_fd_sc_hd__mux2_1_1_X[0]:4 7.311694e-05

*RES
0 mem_right_track_26\/sky130_fd_sc_hd__dfxbp_1_0_:Q mux_tree_tapbuf_size2_11_sram[0]:16 0.152
1 mux_tree_tapbuf_size2_11_sram[0]:9 mux_tree_tapbuf_size2_11_sram[0]:8 0.00341
2 mux_tree_tapbuf_size2_11_sram[0]:8 mux_tree_tapbuf_size2_11_sram[0]:7 0.00129485
3 mux_tree_tapbuf_size2_11_sram[0]:6 mux_tree_tapbuf_size2_11_sram[0]:5 0.008408482
4 mux_tree_tapbuf_size2_11_sram[0]:7 mux_tree_tapbuf_size2_11_sram[0]:6 0.00341
5 mux_tree_tapbuf_size2_11_sram[0]:4 mux_tree_tapbuf_size2_11_sram[0]:3 0.001462054
6 mux_tree_tapbuf_size2_11_sram[0]:5 mux_tree_tapbuf_size2_11_sram[0]:4 0.0045
7 mux_tree_tapbuf_size2_11_sram[0]:3 mux_right_track_26\/mux_l1_in_0_:S 0.152
8 mux_tree_tapbuf_size2_11_sram[0]:12 mux_tree_tapbuf_size2_11_sram[0]:11 0.0001548913
9 mux_tree_tapbuf_size2_11_sram[0]:13 mux_tree_tapbuf_size2_11_sram[0]:12 0.0045
10 mux_tree_tapbuf_size2_11_sram[0]:11 mem_right_track_26\/sky130_fd_sc_hd__dfxbp_1_1_:D 0.152
11 mux_tree_tapbuf_size2_11_sram[0]:15 mux_tree_tapbuf_size2_11_sram[0]:14 0.0045
12 mux_tree_tapbuf_size2_11_sram[0]:14 mux_tree_tapbuf_size2_11_sram[0]:13 0.004816965
13 mux_tree_tapbuf_size2_11_sram[0]:14 mux_tree_tapbuf_size2_11_sram[0]:10 0.0004107143
14 mux_tree_tapbuf_size2_11_sram[0]:16 mux_tree_tapbuf_size2_11_sram[0]:15 8.423914e-05
15 mux_tree_tapbuf_size2_11_sram[0]:10 mux_tree_tapbuf_size2_11_sram[0]:9 0.002073661

*END

*D_NET mux_tree_tapbuf_size3_1_sram[1] 0.001889677 //LENGTH 17.795 LUMPCC 0 DR

*CONN
*I mem_right_track_24\/sky130_fd_sc_hd__dfxbp_1_1_:Q O *L 0 *C 23.305 47.600
*I mux_right_track_24\/mux_l2_in_0_:S I *L 0.00357 *C 28.860 50.660
*I mem_right_track_24\/FTB_18__39:A I *L 0.001746 *C 28.060 58.480
*N mux_tree_tapbuf_size3_1_sram[1]:3 *C 28.060 58.480
*N mux_tree_tapbuf_size3_1_sram[1]:4 *C 28.060 58.435
*N mux_tree_tapbuf_size3_1_sram[1]:5 *C 28.823 50.660
*N mux_tree_tapbuf_size3_1_sram[1]:6 *C 28.105 50.660
*N mux_tree_tapbuf_size3_1_sram[1]:7 *C 28.060 50.705
*N mux_tree_tapbuf_size3_1_sram[1]:8 *C 27.600 50.660
*N mux_tree_tapbuf_size3_1_sram[1]:9 *C 27.600 47.645
*N mux_tree_tapbuf_size3_1_sram[1]:10 *C 27.555 47.600
*N mux_tree_tapbuf_size3_1_sram[1]:11 *C 23.343 47.600

*CAP
0 mem_right_track_24\/sky130_fd_sc_hd__dfxbp_1_1_:Q 1e-06
1 mux_right_track_24\/mux_l2_in_0_:S 1e-06
2 mem_right_track_24\/FTB_18__39:A 1e-06
3 mux_tree_tapbuf_size3_1_sram[1]:3 3.438181e-05
4 mux_tree_tapbuf_size3_1_sram[1]:4 0.00042177
5 mux_tree_tapbuf_size3_1_sram[1]:5 6.375536e-05
6 mux_tree_tapbuf_size3_1_sram[1]:6 6.375536e-05
7 mux_tree_tapbuf_size3_1_sram[1]:7 0.0004524325
8 mux_tree_tapbuf_size3_1_sram[1]:8 0.0002024652
9 mux_tree_tapbuf_size3_1_sram[1]:9 0.0001718026
10 mux_tree_tapbuf_size3_1_sram[1]:10 0.000238157
11 mux_tree_tapbuf_size3_1_sram[1]:11 0.000238157

*RES
0 mem_right_track_24\/sky130_fd_sc_hd__dfxbp_1_1_:Q mux_tree_tapbuf_size3_1_sram[1]:11 0.152
1 mux_tree_tapbuf_size3_1_sram[1]:5 mux_right_track_24\/mux_l2_in_0_:S 0.152
2 mux_tree_tapbuf_size3_1_sram[1]:6 mux_tree_tapbuf_size3_1_sram[1]:5 0.000640625
3 mux_tree_tapbuf_size3_1_sram[1]:7 mux_tree_tapbuf_size3_1_sram[1]:6 0.0045
4 mux_tree_tapbuf_size3_1_sram[1]:7 mux_tree_tapbuf_size3_1_sram[1]:4 0.006901787
5 mux_tree_tapbuf_size3_1_sram[1]:3 mem_right_track_24\/FTB_18__39:A 0.152
6 mux_tree_tapbuf_size3_1_sram[1]:4 mux_tree_tapbuf_size3_1_sram[1]:3 0.0045
7 mux_tree_tapbuf_size3_1_sram[1]:10 mux_tree_tapbuf_size3_1_sram[1]:9 0.0045
8 mux_tree_tapbuf_size3_1_sram[1]:9 mux_tree_tapbuf_size3_1_sram[1]:8 0.002691964
9 mux_tree_tapbuf_size3_1_sram[1]:11 mux_tree_tapbuf_size3_1_sram[1]:10 0.003761161
10 mux_tree_tapbuf_size3_1_sram[1]:8 mux_tree_tapbuf_size3_1_sram[1]:7 0.0004107143

*END

*D_NET mux_tree_tapbuf_size5_mem_0_ccff_tail[0] 0.001364381 //LENGTH 10.370 LUMPCC 0.0003963029 DR

*CONN
*I mem_right_track_2\/FTB_15__36:X O *L 0 *C 65.500 60.520
*I mem_right_track_4\/sky130_fd_sc_hd__dfxbp_1_0_:D I *L 0.001695 *C 63.200 53.380
*N mux_tree_tapbuf_size5_mem_0_ccff_tail[0]:2 *C 63.238 53.380
*N mux_tree_tapbuf_size5_mem_0_ccff_tail[0]:3 *C 64.815 53.380
*N mux_tree_tapbuf_size5_mem_0_ccff_tail[0]:4 *C 64.860 53.425
*N mux_tree_tapbuf_size5_mem_0_ccff_tail[0]:5 *C 64.860 60.475
*N mux_tree_tapbuf_size5_mem_0_ccff_tail[0]:6 *C 64.905 60.520
*N mux_tree_tapbuf_size5_mem_0_ccff_tail[0]:7 *C 65.463 60.520

*CAP
0 mem_right_track_2\/FTB_15__36:X 1e-06
1 mem_right_track_4\/sky130_fd_sc_hd__dfxbp_1_0_:D 1e-06
2 mux_tree_tapbuf_size5_mem_0_ccff_tail[0]:2 8.081093e-05
3 mux_tree_tapbuf_size5_mem_0_ccff_tail[0]:3 8.081093e-05
4 mux_tree_tapbuf_size5_mem_0_ccff_tail[0]:4 0.0003392185
5 mux_tree_tapbuf_size5_mem_0_ccff_tail[0]:5 0.0003392185
6 mux_tree_tapbuf_size5_mem_0_ccff_tail[0]:6 6.300959e-05
7 mux_tree_tapbuf_size5_mem_0_ccff_tail[0]:7 6.300959e-05
8 mux_tree_tapbuf_size5_mem_0_ccff_tail[0]:4 chanx_right_in[12]:4 6.662645e-05
9 mux_tree_tapbuf_size5_mem_0_ccff_tail[0]:5 chanx_right_in[12]:3 6.662645e-05
10 mux_tree_tapbuf_size5_mem_0_ccff_tail[0]:4 chany_top_in[8]:8 5.943019e-05
11 mux_tree_tapbuf_size5_mem_0_ccff_tail[0]:5 chany_top_in[8] 5.943019e-05
12 mux_tree_tapbuf_size5_mem_0_ccff_tail[0]:2 mux_right_track_22/sky130_fd_sc_hd__mux2_1_1_X[0]:4 7.209482e-05
13 mux_tree_tapbuf_size5_mem_0_ccff_tail[0]:3 mux_right_track_22/sky130_fd_sc_hd__mux2_1_1_X[0]:3 7.209482e-05

*RES
0 mem_right_track_2\/FTB_15__36:X mux_tree_tapbuf_size5_mem_0_ccff_tail[0]:7 0.152
1 mux_tree_tapbuf_size5_mem_0_ccff_tail[0]:2 mem_right_track_4\/sky130_fd_sc_hd__dfxbp_1_0_:D 0.152
2 mux_tree_tapbuf_size5_mem_0_ccff_tail[0]:3 mux_tree_tapbuf_size5_mem_0_ccff_tail[0]:2 0.001408482
3 mux_tree_tapbuf_size5_mem_0_ccff_tail[0]:4 mux_tree_tapbuf_size5_mem_0_ccff_tail[0]:3 0.0045
4 mux_tree_tapbuf_size5_mem_0_ccff_tail[0]:6 mux_tree_tapbuf_size5_mem_0_ccff_tail[0]:5 0.0045
5 mux_tree_tapbuf_size5_mem_0_ccff_tail[0]:5 mux_tree_tapbuf_size5_mem_0_ccff_tail[0]:4 0.006294644
6 mux_tree_tapbuf_size5_mem_0_ccff_tail[0]:7 mux_tree_tapbuf_size5_mem_0_ccff_tail[0]:6 0.0004977679

*END

*D_NET mux_tree_tapbuf_size6_mem_1_ccff_tail[0] 0.001473673 //LENGTH 11.140 LUMPCC 0.0001395628 DR

*CONN
*I mem_right_track_4\/FTB_14__35:X O *L 0 *C 72.445 56.100
*I mem_right_track_6\/sky130_fd_sc_hd__dfxbp_1_0_:D I *L 0.001695 *C 67.325 60.860
*N mux_tree_tapbuf_size6_mem_1_ccff_tail[0]:2 *C 67.362 60.860
*N mux_tree_tapbuf_size6_mem_1_ccff_tail[0]:3 *C 72.680 60.860
*N mux_tree_tapbuf_size6_mem_1_ccff_tail[0]:4 *C 72.680 60.520
*N mux_tree_tapbuf_size6_mem_1_ccff_tail[0]:5 *C 72.680 60.475
*N mux_tree_tapbuf_size6_mem_1_ccff_tail[0]:6 *C 72.680 56.145
*N mux_tree_tapbuf_size6_mem_1_ccff_tail[0]:7 *C 72.680 56.100
*N mux_tree_tapbuf_size6_mem_1_ccff_tail[0]:8 *C 72.445 56.100

*CAP
0 mem_right_track_4\/FTB_14__35:X 1e-06
1 mem_right_track_6\/sky130_fd_sc_hd__dfxbp_1_0_:D 1e-06
2 mux_tree_tapbuf_size6_mem_1_ccff_tail[0]:2 0.0003565595
3 mux_tree_tapbuf_size6_mem_1_ccff_tail[0]:3 0.0003847673
4 mux_tree_tapbuf_size6_mem_1_ccff_tail[0]:4 6.097459e-05
5 mux_tree_tapbuf_size6_mem_1_ccff_tail[0]:5 0.0002133875
6 mux_tree_tapbuf_size6_mem_1_ccff_tail[0]:6 0.0002133875
7 mux_tree_tapbuf_size6_mem_1_ccff_tail[0]:7 5.161453e-05
8 mux_tree_tapbuf_size6_mem_1_ccff_tail[0]:8 5.141919e-05
9 mux_tree_tapbuf_size6_mem_1_ccff_tail[0]:6 mux_right_track_4/sky130_fd_sc_hd__mux2_1_0_X[0]:3 6.978139e-05
10 mux_tree_tapbuf_size6_mem_1_ccff_tail[0]:5 mux_right_track_4/sky130_fd_sc_hd__mux2_1_0_X[0]:4 6.978139e-05

*RES
0 mem_right_track_4\/FTB_14__35:X mux_tree_tapbuf_size6_mem_1_ccff_tail[0]:8 0.152
1 mux_tree_tapbuf_size6_mem_1_ccff_tail[0]:8 mux_tree_tapbuf_size6_mem_1_ccff_tail[0]:7 0.0001277174
2 mux_tree_tapbuf_size6_mem_1_ccff_tail[0]:7 mux_tree_tapbuf_size6_mem_1_ccff_tail[0]:6 0.0045
3 mux_tree_tapbuf_size6_mem_1_ccff_tail[0]:6 mux_tree_tapbuf_size6_mem_1_ccff_tail[0]:5 0.003866072
4 mux_tree_tapbuf_size6_mem_1_ccff_tail[0]:4 mux_tree_tapbuf_size6_mem_1_ccff_tail[0]:3 0.0003035714
5 mux_tree_tapbuf_size6_mem_1_ccff_tail[0]:5 mux_tree_tapbuf_size6_mem_1_ccff_tail[0]:4 0.0045
6 mux_tree_tapbuf_size6_mem_1_ccff_tail[0]:2 mem_right_track_6\/sky130_fd_sc_hd__dfxbp_1_0_:D 0.152
7 mux_tree_tapbuf_size6_mem_1_ccff_tail[0]:3 mux_tree_tapbuf_size6_mem_1_ccff_tail[0]:2 0.004747768

*END

*D_NET mux_right_track_10/sky130_fd_sc_hd__mux2_1_0_X[0] 0.001311176 //LENGTH 10.070 LUMPCC 0.0002047119 DR

*CONN
*I mux_right_track_10\/mux_l1_in_0_:X O *L 0 *C 19.035 75.140
*I mux_right_track_10\/mux_l2_in_0_:A1 I *L 0.00198 *C 25.760 72.420
*N mux_right_track_10/sky130_fd_sc_hd__mux2_1_0_X[0]:2 *C 25.760 72.420
*N mux_right_track_10/sky130_fd_sc_hd__mux2_1_0_X[0]:3 *C 25.760 72.465
*N mux_right_track_10/sky130_fd_sc_hd__mux2_1_0_X[0]:4 *C 25.760 75.095
*N mux_right_track_10/sky130_fd_sc_hd__mux2_1_0_X[0]:5 *C 25.715 75.140
*N mux_right_track_10/sky130_fd_sc_hd__mux2_1_0_X[0]:6 *C 19.073 75.140

*CAP
0 mux_right_track_10\/mux_l1_in_0_:X 1e-06
1 mux_right_track_10\/mux_l2_in_0_:A1 1e-06
2 mux_right_track_10/sky130_fd_sc_hd__mux2_1_0_X[0]:2 3.050722e-05
3 mux_right_track_10/sky130_fd_sc_hd__mux2_1_0_X[0]:3 0.0001576778
4 mux_right_track_10/sky130_fd_sc_hd__mux2_1_0_X[0]:4 0.0001576778
5 mux_right_track_10/sky130_fd_sc_hd__mux2_1_0_X[0]:5 0.0003793008
6 mux_right_track_10/sky130_fd_sc_hd__mux2_1_0_X[0]:6 0.0003793008
7 mux_right_track_10/sky130_fd_sc_hd__mux2_1_0_X[0]:6 ropt_net_106:2 9.732727e-05
8 mux_right_track_10/sky130_fd_sc_hd__mux2_1_0_X[0]:5 ropt_net_106:3 9.732727e-05
9 mux_right_track_10/sky130_fd_sc_hd__mux2_1_0_X[0]:4 ropt_net_106:4 5.028709e-06
10 mux_right_track_10/sky130_fd_sc_hd__mux2_1_0_X[0]:3 ropt_net_106:5 5.028709e-06

*RES
0 mux_right_track_10\/mux_l1_in_0_:X mux_right_track_10/sky130_fd_sc_hd__mux2_1_0_X[0]:6 0.152
1 mux_right_track_10/sky130_fd_sc_hd__mux2_1_0_X[0]:6 mux_right_track_10/sky130_fd_sc_hd__mux2_1_0_X[0]:5 0.005930804
2 mux_right_track_10/sky130_fd_sc_hd__mux2_1_0_X[0]:5 mux_right_track_10/sky130_fd_sc_hd__mux2_1_0_X[0]:4 0.0045
3 mux_right_track_10/sky130_fd_sc_hd__mux2_1_0_X[0]:4 mux_right_track_10/sky130_fd_sc_hd__mux2_1_0_X[0]:3 0.002348214
4 mux_right_track_10/sky130_fd_sc_hd__mux2_1_0_X[0]:2 mux_right_track_10\/mux_l2_in_0_:A1 0.152
5 mux_right_track_10/sky130_fd_sc_hd__mux2_1_0_X[0]:3 mux_right_track_10/sky130_fd_sc_hd__mux2_1_0_X[0]:2 0.0045

*END

*D_NET mux_right_track_18/sky130_fd_sc_hd__mux2_1_1_X[0] 0.0005919037 //LENGTH 3.855 LUMPCC 0.0002459328 DR

*CONN
*I mux_right_track_18\/mux_l2_in_0_:X O *L 0 *C 75.265 42.160
*I mux_right_track_18\/sky130_fd_sc_hd__buf_4_0_:A I *L 0.002576 *C 78.905 42.305
*N mux_right_track_18/sky130_fd_sc_hd__mux2_1_1_X[0]:2 *C 78.868 42.210
*N mux_right_track_18/sky130_fd_sc_hd__mux2_1_1_X[0]:3 *C 75.303 42.160

*CAP
0 mux_right_track_18\/mux_l2_in_0_:X 1e-06
1 mux_right_track_18\/sky130_fd_sc_hd__buf_4_0_:A 1e-06
2 mux_right_track_18/sky130_fd_sc_hd__mux2_1_1_X[0]:2 0.0001719854
3 mux_right_track_18/sky130_fd_sc_hd__mux2_1_1_X[0]:3 0.0001719854
4 mux_right_track_18/sky130_fd_sc_hd__mux2_1_1_X[0]:2 chanx_right_in[6]:19 0.0001229664
5 mux_right_track_18/sky130_fd_sc_hd__mux2_1_1_X[0]:3 chanx_right_in[6]:18 0.0001229664

*RES
0 mux_right_track_18\/mux_l2_in_0_:X mux_right_track_18/sky130_fd_sc_hd__mux2_1_1_X[0]:3 0.152
1 mux_right_track_18/sky130_fd_sc_hd__mux2_1_1_X[0]:2 mux_right_track_18\/sky130_fd_sc_hd__buf_4_0_:A 0.152
2 mux_right_track_18/sky130_fd_sc_hd__mux2_1_1_X[0]:3 mux_right_track_18/sky130_fd_sc_hd__mux2_1_1_X[0]:2 0.003183036

*END

*D_NET mux_right_track_0/sky130_fd_sc_hd__mux2_1_4_X[0] 0.000399269 //LENGTH 2.590 LUMPCC 0.0001103285 DR

*CONN
*I mux_right_track_0\/mux_l2_in_1_:X O *L 0 *C 57.675 44.200
*I mux_right_track_0\/mux_l3_in_0_:A0 I *L 0.001631 *C 55.375 44.200
*N mux_right_track_0/sky130_fd_sc_hd__mux2_1_4_X[0]:2 *C 55.413 44.200
*N mux_right_track_0/sky130_fd_sc_hd__mux2_1_4_X[0]:3 *C 57.638 44.200

*CAP
0 mux_right_track_0\/mux_l2_in_1_:X 1e-06
1 mux_right_track_0\/mux_l3_in_0_:A0 1e-06
2 mux_right_track_0/sky130_fd_sc_hd__mux2_1_4_X[0]:2 0.0001434702
3 mux_right_track_0/sky130_fd_sc_hd__mux2_1_4_X[0]:3 0.0001434702
4 mux_right_track_0/sky130_fd_sc_hd__mux2_1_4_X[0]:2 optlc_net_99:7 5.516427e-05
5 mux_right_track_0/sky130_fd_sc_hd__mux2_1_4_X[0]:3 optlc_net_99:6 5.516427e-05

*RES
0 mux_right_track_0\/mux_l2_in_1_:X mux_right_track_0/sky130_fd_sc_hd__mux2_1_4_X[0]:3 0.152
1 mux_right_track_0/sky130_fd_sc_hd__mux2_1_4_X[0]:2 mux_right_track_0\/mux_l3_in_0_:A0 0.152
2 mux_right_track_0/sky130_fd_sc_hd__mux2_1_4_X[0]:3 mux_right_track_0/sky130_fd_sc_hd__mux2_1_4_X[0]:2 0.001986607

*END

*D_NET mux_right_track_2/sky130_fd_sc_hd__mux2_1_0_X[0] 0.001443235 //LENGTH 9.855 LUMPCC 0.0005525767 DR

*CONN
*I mux_right_track_2\/mux_l1_in_0_:X O *L 0 *C 53.185 69.020
*I mux_right_track_2\/mux_l2_in_0_:A1 I *L 0.00198 *C 56.120 63.580
*N mux_right_track_2/sky130_fd_sc_hd__mux2_1_0_X[0]:2 *C 56.083 63.580
*N mux_right_track_2/sky130_fd_sc_hd__mux2_1_0_X[0]:3 *C 53.405 63.580
*N mux_right_track_2/sky130_fd_sc_hd__mux2_1_0_X[0]:4 *C 53.360 63.625
*N mux_right_track_2/sky130_fd_sc_hd__mux2_1_0_X[0]:5 *C 53.360 65.960
*N mux_right_track_2/sky130_fd_sc_hd__mux2_1_0_X[0]:6 *C 52.900 65.960
*N mux_right_track_2/sky130_fd_sc_hd__mux2_1_0_X[0]:7 *C 52.900 68.975
*N mux_right_track_2/sky130_fd_sc_hd__mux2_1_0_X[0]:8 *C 52.900 69.020
*N mux_right_track_2/sky130_fd_sc_hd__mux2_1_0_X[0]:9 *C 53.185 69.020

*CAP
0 mux_right_track_2\/mux_l1_in_0_:X 1e-06
1 mux_right_track_2\/mux_l2_in_0_:A1 1e-06
2 mux_right_track_2/sky130_fd_sc_hd__mux2_1_0_X[0]:2 0.00013715
3 mux_right_track_2/sky130_fd_sc_hd__mux2_1_0_X[0]:3 0.00013715
4 mux_right_track_2/sky130_fd_sc_hd__mux2_1_0_X[0]:4 8.456986e-05
5 mux_right_track_2/sky130_fd_sc_hd__mux2_1_0_X[0]:5 0.0001151283
6 mux_right_track_2/sky130_fd_sc_hd__mux2_1_0_X[0]:6 0.0001730232
7 mux_right_track_2/sky130_fd_sc_hd__mux2_1_0_X[0]:7 0.0001424648
8 mux_right_track_2/sky130_fd_sc_hd__mux2_1_0_X[0]:8 4.888183e-05
9 mux_right_track_2/sky130_fd_sc_hd__mux2_1_0_X[0]:9 5.029008e-05
10 mux_right_track_2/sky130_fd_sc_hd__mux2_1_0_X[0]:7 mux_tree_tapbuf_size5_0_sram[1]:6 2.691298e-06
11 mux_right_track_2/sky130_fd_sc_hd__mux2_1_0_X[0]:3 mux_tree_tapbuf_size5_0_sram[1]:8 9.503512e-05
12 mux_right_track_2/sky130_fd_sc_hd__mux2_1_0_X[0]:4 mux_tree_tapbuf_size5_0_sram[1]:7 5.916089e-05
13 mux_right_track_2/sky130_fd_sc_hd__mux2_1_0_X[0]:2 mux_tree_tapbuf_size5_0_sram[1]:9 9.503512e-05
14 mux_right_track_2/sky130_fd_sc_hd__mux2_1_0_X[0]:6 mux_tree_tapbuf_size5_0_sram[1]:7 2.691298e-06
15 mux_right_track_2/sky130_fd_sc_hd__mux2_1_0_X[0]:5 mux_tree_tapbuf_size5_0_sram[1]:6 5.916089e-05
16 mux_right_track_2/sky130_fd_sc_hd__mux2_1_0_X[0]:9 mux_tree_tapbuf_size5_1_sram[0]:7 1.341888e-05
17 mux_right_track_2/sky130_fd_sc_hd__mux2_1_0_X[0]:8 mux_tree_tapbuf_size5_1_sram[0]:8 1.341888e-05
18 mux_right_track_2/sky130_fd_sc_hd__mux2_1_0_X[0]:7 mux_tree_tapbuf_size5_1_sram[0]:9 8.338942e-05
19 mux_right_track_2/sky130_fd_sc_hd__mux2_1_0_X[0]:4 mux_tree_tapbuf_size5_1_sram[0]:14 2.259274e-05
20 mux_right_track_2/sky130_fd_sc_hd__mux2_1_0_X[0]:6 mux_tree_tapbuf_size5_1_sram[0]:14 8.338942e-05
21 mux_right_track_2/sky130_fd_sc_hd__mux2_1_0_X[0]:5 mux_tree_tapbuf_size5_1_sram[0]:9 2.259274e-05

*RES
0 mux_right_track_2\/mux_l1_in_0_:X mux_right_track_2/sky130_fd_sc_hd__mux2_1_0_X[0]:9 0.152
1 mux_right_track_2/sky130_fd_sc_hd__mux2_1_0_X[0]:9 mux_right_track_2/sky130_fd_sc_hd__mux2_1_0_X[0]:8 0.0001548913
2 mux_right_track_2/sky130_fd_sc_hd__mux2_1_0_X[0]:8 mux_right_track_2/sky130_fd_sc_hd__mux2_1_0_X[0]:7 0.0045
3 mux_right_track_2/sky130_fd_sc_hd__mux2_1_0_X[0]:7 mux_right_track_2/sky130_fd_sc_hd__mux2_1_0_X[0]:6 0.002691965
4 mux_right_track_2/sky130_fd_sc_hd__mux2_1_0_X[0]:3 mux_right_track_2/sky130_fd_sc_hd__mux2_1_0_X[0]:2 0.002390625
5 mux_right_track_2/sky130_fd_sc_hd__mux2_1_0_X[0]:4 mux_right_track_2/sky130_fd_sc_hd__mux2_1_0_X[0]:3 0.0045
6 mux_right_track_2/sky130_fd_sc_hd__mux2_1_0_X[0]:2 mux_right_track_2\/mux_l2_in_0_:A1 0.152
7 mux_right_track_2/sky130_fd_sc_hd__mux2_1_0_X[0]:6 mux_right_track_2/sky130_fd_sc_hd__mux2_1_0_X[0]:5 0.0004107143
8 mux_right_track_2/sky130_fd_sc_hd__mux2_1_0_X[0]:5 mux_right_track_2/sky130_fd_sc_hd__mux2_1_0_X[0]:4 0.002084821

*END

*D_NET ropt_net_131 0.0003723106 //LENGTH 3.585 LUMPCC 0 DR

*CONN
*I ropt_mt_inst_689:X O *L 0 *C 4.140 67.320
*I ropt_mt_inst_715:A I *L 0.001766 *C 3.220 69.360
*N ropt_net_131:2 *C 3.258 69.360
*N ropt_net_131:3 *C 4.095 69.360
*N ropt_net_131:4 *C 4.140 69.315
*N ropt_net_131:5 *C 4.140 67.365
*N ropt_net_131:6 *C 4.140 67.320

*CAP
0 ropt_mt_inst_689:X 1e-06
1 ropt_mt_inst_715:A 1e-06
2 ropt_net_131:2 6.337222e-05
3 ropt_net_131:3 6.337222e-05
4 ropt_net_131:4 0.0001070571
5 ropt_net_131:5 0.0001070571
6 ropt_net_131:6 2.945194e-05

*RES
0 ropt_mt_inst_689:X ropt_net_131:6 0.152
1 ropt_net_131:2 ropt_mt_inst_715:A 0.152
2 ropt_net_131:3 ropt_net_131:2 0.0007477679
3 ropt_net_131:4 ropt_net_131:3 0.0045
4 ropt_net_131:6 ropt_net_131:5 0.0045
5 ropt_net_131:5 ropt_net_131:4 0.001741072

*END

*D_NET chany_top_out[1] 0.0007943216 //LENGTH 5.690 LUMPCC 0 DR

*CONN
*I ropt_mt_inst_705:X O *L 0 *C 49.415 77.860
*P chany_top_out[1] O *L 0.7423 *C 46.920 80.310
*N chany_top_out[1]:2 *C 46.920 78.245
*N chany_top_out[1]:3 *C 46.965 78.200
*N chany_top_out[1]:4 *C 47.380 78.200
*N chany_top_out[1]:5 *C 47.380 77.860
*N chany_top_out[1]:6 *C 49.378 77.860

*CAP
0 ropt_mt_inst_705:X 1e-06
1 chany_top_out[1] 0.0001516115
2 chany_top_out[1]:2 0.0001516115
3 chany_top_out[1]:3 5.370281e-05
4 chany_top_out[1]:4 8.206381e-05
5 chany_top_out[1]:5 0.0001913465
6 chany_top_out[1]:6 0.0001629855

*RES
0 ropt_mt_inst_705:X chany_top_out[1]:6 0.152
1 chany_top_out[1]:6 chany_top_out[1]:5 0.001783482
2 chany_top_out[1]:3 chany_top_out[1]:2 0.0045
3 chany_top_out[1]:2 chany_top_out[1] 0.00184375
4 chany_top_out[1]:4 chany_top_out[1]:3 0.0003705358
5 chany_top_out[1]:5 chany_top_out[1]:4 0.0003035715

*END

*D_NET ropt_net_111 0.001521784 //LENGTH 11.405 LUMPCC 0.000106739 DR

*CONN
*I FTB_20__19:X O *L 0 *C 37.260 74.120
*I ropt_mt_inst_695:A I *L 0.001766 *C 28.520 72.080
*N ropt_net_111:2 *C 28.520 72.080
*N ropt_net_111:3 *C 28.520 72.125
*N ropt_net_111:4 *C 28.520 74.075
*N ropt_net_111:5 *C 28.565 74.120
*N ropt_net_111:6 *C 37.223 74.120

*CAP
0 FTB_20__19:X 1e-06
1 ropt_mt_inst_695:A 1e-06
2 ropt_net_111:2 3.272447e-05
3 ropt_net_111:3 0.0001116872
4 ropt_net_111:4 0.0001116872
5 ropt_net_111:5 0.0005784729
6 ropt_net_111:6 0.0005784729
7 ropt_net_111:3 ropt_net_124:5 4.298854e-05
8 ropt_net_111:5 ropt_net_124:2 1.038093e-05
9 ropt_net_111:4 ropt_net_124:4 4.298854e-05
10 ropt_net_111:6 ropt_net_124:3 1.038093e-05

*RES
0 FTB_20__19:X ropt_net_111:6 0.152
1 ropt_net_111:2 ropt_mt_inst_695:A 0.152
2 ropt_net_111:3 ropt_net_111:2 0.0045
3 ropt_net_111:5 ropt_net_111:4 0.0045
4 ropt_net_111:4 ropt_net_111:3 0.001741072
5 ropt_net_111:6 ropt_net_111:5 0.007729911

*END

*D_NET BUF_net_49 0.002663755 //LENGTH 21.930 LUMPCC 0.0007754007 DR

*CONN
*I BUFT_RR_49:X O *L 0 *C 60.720 58.820
*I BUFT_P_83:A I *L 0.001766 *C 63.020 77.520
*N BUF_net_49:2 *C 62.983 77.520