*SPEF "1481-1998"
*DESIGN "sb_0__2_"
*DATE "Mon Oct 26 23:03:32 2020"
*
*
*
*
*DIVIDER /
*DELIMITER :
*T_UNIT 1 NS
*C_UNIT 1 PF
*R_UNIT 1 KOHM
*L_UNIT 1 HENRY

// XY_UNIT 1 UM
// PARASITIC_TECH nominal at 25.000 degree

*PORTS
prog_clk[0] I *C 36.340 0.680
chanx_right_in[0] I *C 112.470 87.040
chanx_right_in[1] I *C 112.470 57.120
chanx_right_in[2] I *C 112.470 99.280
chanx_right_in[3] I *C 112.470 96.560
chanx_right_in[4] I *C 112.470 34.000
chanx_right_in[5] I *C 112.470 62.560
chanx_right_in[6] I *C 112.470 31.280
chanx_right_in[7] I *C 112.470 50.320
chanx_right_in[8] I *C 112.470 77.520
chanx_right_in[9] I *C 112.470 35.360
chanx_right_in[10] I *C 112.470 80.240
chanx_right_in[11] I *C 112.470 58.480
chanx_right_in[12] I *C 112.470 74.800
chanx_right_in[13] I *C 112.470 36.720
chanx_right_in[14] I *C 112.470 43.520
chanx_right_in[15] I *C 112.470 55.760
chanx_right_in[16] I *C 112.470 40.800
chanx_right_in[17] I *C 112.470 61.200
chanx_right_in[18] I *C 112.470 39.440
chanx_right_in[19] I *C 112.470 72.080
right_top_grid_pin_1_[0] I *C 109.940 102.680
chany_bottom_in[0] I *C 65.780 0.680
chany_bottom_in[1] I *C 14.720 0.680
chany_bottom_in[2] I *C 71.300 0.680
chany_bottom_in[3] I *C 13.800 0.680
chany_bottom_in[4] I *C 73.140 0.680
chany_bottom_in[5] I *C 49.220 0.680
chany_bottom_in[6] I *C 52.900 0.680
chany_bottom_in[7] I *C 22.080 0.680
chany_bottom_in[8] I *C 23.920 0.680
chany_bottom_in[9] I *C 23.000 0.680
chany_bottom_in[10] I *C 51.980 0.680
chany_bottom_in[11] I *C 30.820 0.680
chany_bottom_in[12] I *C 63.940 0.680
chany_bottom_in[13] I *C 72.220 0.680
chany_bottom_in[14] I *C 43.700 0.680
chany_bottom_in[15] I *C 46.460 0.680
chany_bottom_in[16] I *C 41.860 0.680
chany_bottom_in[17] I *C 29.900 0.680
chany_bottom_in[18] I *C 26.680 0.680
chany_bottom_in[19] I *C 24.840 0.680
bottom_left_grid_pin_1_[0] I *C 2.300 0.680
ccff_head[0] I *C 110.860 102.680
chanx_right_out[0] O *C 112.470 73.440
chanx_right_out[1] O *C 112.470 47.600
chanx_right_out[2] O *C 112.470 53.040
chanx_right_out[3] O *C 112.470 82.960
chanx_right_out[4] O *C 112.470 78.880
chanx_right_out[5] O *C 112.470 95.200
chanx_right_out[6] O *C 112.470 84.320
chanx_right_out[7] O *C 112.470 93.840
chanx_right_out[8] O *C 112.470 85.680
chanx_right_out[9] O *C 112.470 44.880
chanx_right_out[10] O *C 112.470 51.680
chanx_right_out[11] O *C 112.470 69.360
chanx_right_out[12] O *C 112.470 42.160
chanx_right_out[13] O *C 112.470 66.640
chanx_right_out[14] O *C 112.470 91.120
chanx_right_out[15] O *C 112.470 68.000
chanx_right_out[16] O *C 112.470 63.920
chanx_right_out[17] O *C 112.470 88.400
chanx_right_out[18] O *C 112.470 89.760
chanx_right_out[19] O *C 112.470 46.240
chany_bottom_out[0] O *C 50.140 0.680
chany_bottom_out[1] O *C 34.500 0.680
chany_bottom_out[2] O *C 66.700 0.680
chany_bottom_out[3] O *C 44.620 0.680
chany_bottom_out[4] O *C 51.060 0.680
chany_bottom_out[5] O *C 45.540 0.680
chany_bottom_out[6] O *C 70.380 0.680
chany_bottom_out[7] O *C 68.540 0.680
chany_bottom_out[8] O *C 69.460 0.680
chany_bottom_out[9] O *C 25.760 0.680
chany_bottom_out[10] O *C 42.780 0.680
chany_bottom_out[11] O *C 48.300 0.680
chany_bottom_out[12] O *C 67.620 0.680
chany_bottom_out[13] O *C 49.680 0.680
chany_bottom_out[14] O *C 46.000 0.680
chany_bottom_out[15] O *C 47.840 0.680
chany_bottom_out[16] O *C 28.520 0.680
chany_bottom_out[17] O *C 47.380 0.680
chany_bottom_out[18] O *C 23.920 0.680
chany_bottom_out[19] O *C 25.760 0.680
ccff_tail[0] O *C 54.280 0.680
VDD I *C 56.580 51.680
VSS I *C 56.580 51.680

*D_NET chanx_right_in[0] 0.0148509 //LENGTH 153.665 LUMPCC 0.001646014 DR

*CONN
*P chanx_right_in[0] I *L 0.29796 *C 111.930 87.040
*I BUFT_RR_42:A I *L 0.001776 *C 33.120 14.960
*N chanx_right_in[0]:2 *C 33.157 14.960
*N chanx_right_in[0]:3 *C 34.455 14.960
*N chanx_right_in[0]:4 *C 34.500 15.005
*N chanx_right_in[0]:5 *C 34.500 64.800
*N chanx_right_in[0]:6 *C 34.500 87.663
*N chanx_right_in[0]:7 *C 34.508 87.720
*N chanx_right_in[0]:8 *C 58.420 87.720
*N chanx_right_in[0]:9 *C 58.420 87.040

*CAP
0 chanx_right_in[0] 0.002256515
1 BUFT_RR_42:A 1e-06
2 chanx_right_in[0]:2 9.352979e-05
3 chanx_right_in[0]:3 9.352979e-05
4 chanx_right_in[0]:4 0.002047793
5 chanx_right_in[0]:5 0.003031913
6 chanx_right_in[0]:6 0.0009841204
7 chanx_right_in[0]:7 0.00117693
8 chanx_right_in[0]:8 0.001219982
9 chanx_right_in[0]:9 0.002299567
10 chanx_right_in[0]:4 chanx_right_in[19]:10 0.0002209021
11 chanx_right_in[0]:4 chanx_right_in[19]:11 1.260426e-05
12 chanx_right_in[0]:6 chanx_right_in[19]:12 3.455915e-05
13 chanx_right_in[0]:5 chanx_right_in[19]:12 1.260426e-05
14 chanx_right_in[0]:5 chanx_right_in[19]:11 0.0002554613
15 chanx_right_in[0] chany_bottom_in[10]:12 0.0002775929
16 chanx_right_in[0]:7 chany_bottom_in[10]:13 1.753833e-05
17 chanx_right_in[0]:8 chany_bottom_in[10]:12 1.753833e-05
18 chanx_right_in[0]:9 chany_bottom_in[10]:13 0.0002775929
19 chanx_right_in[0] ropt_net_156:6 9.261654e-05
20 chanx_right_in[0]:9 ropt_net_156:7 9.261654e-05
21 chanx_right_in[0] ropt_net_162:6 0.0001671938
22 chanx_right_in[0]:9 ropt_net_162:7 0.0001671938

*RES
0 chanx_right_in[0] chanx_right_in[0]:9 0.008383232
1 chanx_right_in[0]:2 BUFT_RR_42:A 0.152
2 chanx_right_in[0]:3 chanx_right_in[0]:2 0.001158482
3 chanx_right_in[0]:4 chanx_right_in[0]:3 0.0045
4 chanx_right_in[0]:6 chanx_right_in[0]:5 0.02041295
5 chanx_right_in[0]:7 chanx_right_in[0]:6 0.00341
6 chanx_right_in[0]:8 chanx_right_in[0]:7 0.003746292
7 chanx_right_in[0]:9 chanx_right_in[0]:8 0.0001065333
8 chanx_right_in[0]:5 chanx_right_in[0]:4 0.04445983

*END

*D_NET chanx_right_in[2] 0.0149674 //LENGTH 158.920 LUMPCC 0.0008497233 DR

*CONN
*P chanx_right_in[2] I *L 0.29796 *C 111.930 99.280
*I BUFT_RR_44:A I *L 0.001776 *C 36.340 17.680
*N chanx_right_in[2]:2 *C 59.393 47.600
*N chanx_right_in[2]:3 *C 36.340 17.680
*N chanx_right_in[2]:4 *C 36.340 17.725
*N chanx_right_in[2]:5 *C 36.340 46.875
*N chanx_right_in[2]:6 *C 36.385 46.920
*N chanx_right_in[2]:7 *C 56.905 46.920
*N chanx_right_in[2]:8 *C 57.025 46.965
*N chanx_right_in[2]:9 *C 57.040 47.570
*N chanx_right_in[2]:10 *C 57.085 47.600
*N chanx_right_in[2]:11 *C 59.438 47.608
*N chanx_right_in[2]:12 *C 59.340 47.645
*N chanx_right_in[2]:13 *C 59.340 99.223
*N chanx_right_in[2]:14 *C 59.348 99.280

*CAP
0 chanx_right_in[2] 0.001972259
1 BUFT_RR_44:A 1e-06
2 chanx_right_in[2]:2 1.748005e-05
3 chanx_right_in[2]:3 3.185537e-05
4 chanx_right_in[2]:4 0.001384527
5 chanx_right_in[2]:5 0.001384527
6 chanx_right_in[2]:6 0.00121176
7 chanx_right_in[2]:7 0.00121176
8 chanx_right_in[2]:8 5.532752e-05
9 chanx_right_in[2]:9 5.532752e-05
10 chanx_right_in[2]:10 0.0001284453
11 chanx_right_in[2]:11 0.0001459253
12 chanx_right_in[2]:12 0.002272613
13 chanx_right_in[2]:13 0.002272613
14 chanx_right_in[2]:14 0.001972259
15 chanx_right_in[2] chanx_right_in[3] 0.0004248616
16 chanx_right_in[2]:14 chanx_right_in[3]:11 0.0004248616

*RES
0 chanx_right_in[2] chanx_right_in[2]:14 0.008237924
1 chanx_right_in[2]:10 chanx_right_in[2]:9 0.0045
2 chanx_right_in[2]:9 chanx_right_in[2]:8 0.0005401786
3 chanx_right_in[2]:7 chanx_right_in[2]:6 0.01832143
4 chanx_right_in[2]:8 chanx_right_in[2]:7 0.0045
5 chanx_right_in[2]:6 chanx_right_in[2]:5 0.0045
6 chanx_right_in[2]:5 chanx_right_in[2]:4 0.02602679
7 chanx_right_in[2]:3 BUFT_RR_44:A 0.152
8 chanx_right_in[2]:4 chanx_right_in[2]:3 0.0045
9 chanx_right_in[2]:11 chanx_right_in[2]:10 0.002100446
10 chanx_right_in[2]:11 chanx_right_in[2]:2 4.017857e-05
11 chanx_right_in[2]:12 chanx_right_in[2]:11 0.0045
12 chanx_right_in[2]:13 chanx_right_in[2]:12 0.04605134
13 chanx_right_in[2]:14 chanx_right_in[2]:13 0.00341

*END

*D_NET chanx_right_in[6] 0.007139163 //LENGTH 58.705 LUMPCC 0.00228573 DR

*CONN
*P chanx_right_in[6] I *L 0.29796 *C 111.930 31.280
*I mux_bottom_track_25\/mux_l1_in_0_:A1 I *L 0.00198 *C 70.840 14.620
*N chanx_right_in[6]:2 *C 70.862 14.648
*N chanx_right_in[6]:3 *C 70.875 14.960
*N chanx_right_in[6]:4 *C 75.855 14.960
*N chanx_right_in[6]:5 *C 75.900 15.005
*N chanx_right_in[6]:6 *C 75.900 31.223
*N chanx_right_in[6]:7 *C 75.907 31.280

*CAP
0 chanx_right_in[6] 0.001273958
1 mux_bottom_track_25\/mux_l1_in_0_:A1 1e-06
2 chanx_right_in[6]:2 3.097319e-05
3 chanx_right_in[6]:3 0.0003568875
4 chanx_right_in[6]:4 0.0003259143
5 chanx_right_in[6]:5 0.0007953713
6 chanx_right_in[6]:6 0.0007953713
7 chanx_right_in[6]:7 0.001273958
8 chanx_right_in[6] chany_bottom_in[2]:12 0.0003772762
9 chanx_right_in[6]:5 chany_bottom_in[2]:15 6.352981e-06
10 chanx_right_in[6]:6 chany_bottom_in[2]:14 6.352981e-06
11 chanx_right_in[6]:7 chany_bottom_in[2]:13 0.0003772762
12 chanx_right_in[6] chany_bottom_in[9]:10 0.0005760266
13 chanx_right_in[6]:7 chany_bottom_in[9]:11 0.0005760266
14 chanx_right_in[6]:4 mux_tree_tapbuf_size2_mem_5_ccff_tail[0]:9 2.863419e-05
15 chanx_right_in[6]:5 mux_tree_tapbuf_size2_mem_5_ccff_tail[0]:7 0.0001545751
16 chanx_right_in[6]:6 mux_tree_tapbuf_size2_mem_5_ccff_tail[0]:6 0.0001545751
17 chanx_right_in[6]:3 mux_tree_tapbuf_size2_mem_5_ccff_tail[0]:8 2.863419e-05

*RES
0 chanx_right_in[6] chanx_right_in[6]:7 0.005643524
1 chanx_right_in[6]:2 mux_bottom_track_25\/mux_l1_in_0_:A1 0.152
2 chanx_right_in[6]:4 chanx_right_in[6]:3 0.004446429
3 chanx_right_in[6]:5 chanx_right_in[6]:4 0.0045
4 chanx_right_in[6]:6 chanx_right_in[6]:5 0.01447991
5 chanx_right_in[6]:7 chanx_right_in[6]:6 0.00341
6 chanx_right_in[6]:3 chanx_right_in[6]:2 0.0002111487

*END

*D_NET right_top_grid_pin_1_[0] 0.009316442 //LENGTH 90.630 LUMPCC 0.0003900079 DR

*CONN
*P right_top_grid_pin_1_[0] I *L 0.29796 *C 109.940 102.035
*I mux_right_track_4\/mux_l1_in_0_:A1 I *L 0.00198 *C 96.240 47.260
*I mux_right_track_8\/mux_l1_in_0_:A1 I *L 0.00198 *C 87.765 39.780
*I mux_right_track_24\/mux_l1_in_0_:A1 I *L 0.00198 *C 89.340 36.380
*I mux_right_track_0\/mux_l1_in_0_:A1 I *L 0.00198 *C 95.320 41.820
*N right_top_grid_pin_1_[0]:5 *C 95.358 41.820
*N right_top_grid_pin_1_[0]:6 *C 95.680 41.820
*N right_top_grid_pin_1_[0]:7 *C 89.240 36.380
*N right_top_grid_pin_1_[0]:8 *C 89.240 36.425
*N right_top_grid_pin_1_[0]:9 *C 87.803 39.780
*N right_top_grid_pin_1_[0]:10 *C 89.195 39.780
*N right_top_grid_pin_1_[0]:11 *C 89.240 39.780
*N right_top_grid_pin_1_[0]:12 *C 89.240 41.435
*N right_top_grid_pin_1_[0]:13 *C 89.285 41.480
*N right_top_grid_pin_1_[0]:14 *C 95.680 41.480
*N right_top_grid_pin_1_[0]:15 *C 96.095 41.480
*N right_top_grid_pin_1_[0]:16 *C 96.140 41.525
*N right_top_grid_pin_1_[0]:17 *C 96.140 47.260
*N right_top_grid_pin_1_[0]:18 *C 96.140 47.260
*N right_top_grid_pin_1_[0]:19 *C 96.140 101.615
*N right_top_grid_pin_1_[0]:20 *C 96.185 101.660
*N right_top_grid_pin_1_[0]:21 *C 109.895 101.660
*N right_top_grid_pin_1_[0]:22 *C 109.940 101.705

*CAP
0 right_top_grid_pin_1_[0] 3.123818e-05
1 mux_right_track_4\/mux_l1_in_0_:A1 1e-06
2 mux_right_track_8\/mux_l1_in_0_:A1 1e-06
3 mux_right_track_24\/mux_l1_in_0_:A1 1e-06
4 mux_right_track_0\/mux_l1_in_0_:A1 1e-06
5 right_top_grid_pin_1_[0]:5 4.405999e-05
6 right_top_grid_pin_1_[0]:6 6.772058e-05
7 right_top_grid_pin_1_[0]:7 3.18023e-05
8 right_top_grid_pin_1_[0]:8 0.0001957053
9 right_top_grid_pin_1_[0]:9 0.00012592
10 right_top_grid_pin_1_[0]:10 0.00012592
11 right_top_grid_pin_1_[0]:11 0.000324966
12 right_top_grid_pin_1_[0]:12 9.596726e-05
13 right_top_grid_pin_1_[0]:13 0.0004100026
14 right_top_grid_pin_1_[0]:14 0.0004726426
15 right_top_grid_pin_1_[0]:15 3.897933e-05
16 right_top_grid_pin_1_[0]:16 0.0002656037
17 right_top_grid_pin_1_[0]:17 3.433214e-05
18 right_top_grid_pin_1_[0]:18 0.00276067
19 right_top_grid_pin_1_[0]:19 0.002462935
20 right_top_grid_pin_1_[0]:20 0.0007013654
21 right_top_grid_pin_1_[0]:21 0.0007013654
22 right_top_grid_pin_1_[0]:22 3.123818e-05
23 right_top_grid_pin_1_[0]:19 mux_right_track_0/sky130_fd_sc_hd__mux2_1_0_X[0]:4 0.0001388395
24 right_top_grid_pin_1_[0]:16 mux_right_track_0/sky130_fd_sc_hd__mux2_1_0_X[0]:5 5.616443e-05
25 right_top_grid_pin_1_[0]:18 mux_right_track_0/sky130_fd_sc_hd__mux2_1_0_X[0]:4 5.616443e-05
26 right_top_grid_pin_1_[0]:18 mux_right_track_0/sky130_fd_sc_hd__mux2_1_0_X[0]:5 0.0001388395

*RES
0 right_top_grid_pin_1_[0] right_top_grid_pin_1_[0]:22 0.0002946429
1 right_top_grid_pin_1_[0]:20 right_top_grid_pin_1_[0]:19 0.0045
2 right_top_grid_pin_1_[0]:19 right_top_grid_pin_1_[0]:18 0.04853126
3 right_top_grid_pin_1_[0]:21 right_top_grid_pin_1_[0]:20 0.01224107
4 right_top_grid_pin_1_[0]:22 right_top_grid_pin_1_[0]:21 0.0045
5 right_top_grid_pin_1_[0]:13 right_top_grid_pin_1_[0]:12 0.0045
6 right_top_grid_pin_1_[0]:12 right_top_grid_pin_1_[0]:11 0.001477679
7 right_top_grid_pin_1_[0]:15 right_top_grid_pin_1_[0]:14 0.0003705357
8 right_top_grid_pin_1_[0]:16 right_top_grid_pin_1_[0]:15 0.0045
9 right_top_grid_pin_1_[0]:5 mux_right_track_0\/mux_l1_in_0_:A1 0.152
10 right_top_grid_pin_1_[0]:7 mux_right_track_24\/mux_l1_in_0_:A1 0.152
11 right_top_grid_pin_1_[0]:8 right_top_grid_pin_1_[0]:7 0.0045
12 right_top_grid_pin_1_[0]:10 right_top_grid_pin_1_[0]:9 0.001243304
13 right_top_grid_pin_1_[0]:11 right_top_grid_pin_1_[0]:10 0.0045
14 right_top_grid_pin_1_[0]:11 right_top_grid_pin_1_[0]:8 0.002995536
15 right_top_grid_pin_1_[0]:9 mux_right_track_8\/mux_l1_in_0_:A1 0.152
16 right_top_grid_pin_1_[0]:17 mux_right_track_4\/mux_l1_in_0_:A1 0.152
17 right_top_grid_pin_1_[0]:18 right_top_grid_pin_1_[0]:17 0.0045
18 right_top_grid_pin_1_[0]:18 right_top_grid_pin_1_[0]:16 0.005120536
19 right_top_grid_pin_1_[0]:14 right_top_grid_pin_1_[0]:13 0.005709822
20 right_top_grid_pin_1_[0]:14 right_top_grid_pin_1_[0]:6 0.0003035715
21 right_top_grid_pin_1_[0]:6 right_top_grid_pin_1_[0]:5 0.0002879465

*END

*D_NET chanx_right_out[0] 0.00238453 //LENGTH 20.245 LUMPCC 0.0002002091 DR

*CONN
*I mux_right_track_0\/sky130_fd_sc_hd__buf_4_0_:X O *L 0 *C 104.880 61.200
*P chanx_right_out[0] O *L 0.7423 *C 111.930 73.440
*N chanx_right_out[0]:2 *C 107.648 73.440
*N chanx_right_out[0]:3 *C 107.640 73.383
*N chanx_right_out[0]:4 *C 107.640 61.585
*N chanx_right_out[0]:5 *C 107.595 61.540
*N chanx_right_out[0]:6 *C 104.915 61.540
*N chanx_right_out[0]:7 *C 104.903 61.228

*CAP
0 mux_right_track_0\/sky130_fd_sc_hd__buf_4_0_:X 1e-06
1 chanx_right_out[0] 0.0003181366
2 chanx_right_out[0]:2 0.0003181366
3 chanx_right_out[0]:3 0.0005848231
4 chanx_right_out[0]:4 0.0005848231
5 chanx_right_out[0]:5 0.0001602605
6 chanx_right_out[0]:6 0.0001887009
7 chanx_right_out[0]:7 2.844044e-05
8 chanx_right_out[0]:3 ropt_net_168:5 5.40545e-05
9 chanx_right_out[0]:5 ropt_net_168:3 4.605005e-05
10 chanx_right_out[0]:4 ropt_net_168:4 5.40545e-05
11 chanx_right_out[0]:6 ropt_net_168:2 4.605005e-05

*RES
0 mux_right_track_0\/sky130_fd_sc_hd__buf_4_0_:X chanx_right_out[0]:7 0.152
1 chanx_right_out[0]:3 chanx_right_out[0]:2 0.00341
2 chanx_right_out[0]:2 chanx_right_out[0] 0.000670925
3 chanx_right_out[0]:5 chanx_right_out[0]:4 0.0045
4 chanx_right_out[0]:4 chanx_right_out[0]:3 0.01053348
5 chanx_right_out[0]:7 chanx_right_out[0]:6 0.0002111487
6 chanx_right_out[0]:6 chanx_right_out[0]:5 0.002392857

*END

*D_NET chany_bottom_out[0] 0.0023698 //LENGTH 18.485 LUMPCC 0.0002799962 DR

*CONN
*I mux_bottom_track_1\/sky130_fd_sc_hd__buf_4_0_:X O *L 0 *C 46.920 15.300
*P chany_bottom_out[0] O *L 0.7423 *C 50.140 1.290
*N chany_bottom_out[0]:2 *C 50.140 15.595
*N chany_bottom_out[0]:3 *C 50.095 15.640
*N chany_bottom_out[0]:4 *C 46.920 15.640
*N chany_bottom_out[0]:5 *C 46.920 15.300

*CAP
0 mux_bottom_track_1\/sky130_fd_sc_hd__buf_4_0_:X 1e-06
1 chany_bottom_out[0] 0.0007648158
2 chany_bottom_out[0]:2 0.0007648158
3 chany_bottom_out[0]:3 0.0002353387
4 chany_bottom_out[0]:4 0.0002644142
5 chany_bottom_out[0]:5 5.941912e-05
6 chany_bottom_out[0] ropt_net_148:4 0.0001399981
7 chany_bottom_out[0]:2 ropt_net_148:5 0.0001399981

*RES
0 mux_bottom_track_1\/sky130_fd_sc_hd__buf_4_0_:X chany_bottom_out[0]:5 0.152
1 chany_bottom_out[0]:3 chany_bottom_out[0]:2 0.0045
2 chany_bottom_out[0]:2 chany_bottom_out[0] 0.01277232
3 chany_bottom_out[0]:5 chany_bottom_out[0]:4 0.0003035715
4 chany_bottom_out[0]:4 chany_bottom_out[0]:3 0.002834822

*END

*D_NET mux_tree_tapbuf_size2_0_sram[1] 0.0008677832 //LENGTH 7.410 LUMPCC 0 DR

*CONN
*I mem_right_track_0\/sky130_fd_sc_hd__dfxbp_1_1_:Q O *L 0 *C 91.845 61.200
*I mem_right_track_0\/FTB_1__32:A I *L 0.001746 *C 93.840 58.480
*I mux_right_track_0\/mux_l2_in_0_:S I *L 0.00357 *C 95.680 58.315
*N mux_tree_tapbuf_size2_0_sram[1]:3 *C 95.642 58.420
*N mux_tree_tapbuf_size2_0_sram[1]:4 *C 93.877 58.480
*N mux_tree_tapbuf_size2_0_sram[1]:5 *C 93.840 58.525
*N mux_tree_tapbuf_size2_0_sram[1]:6 *C 93.840 61.155
*N mux_tree_tapbuf_size2_0_sram[1]:7 *C 93.795 61.200
*N mux_tree_tapbuf_size2_0_sram[1]:8 *C 91.883 61.200

*CAP
0 mem_right_track_0\/sky130_fd_sc_hd__dfxbp_1_1_:Q 1e-06
1 mem_right_track_0\/FTB_1__32:A 1e-06
2 mux_right_track_0\/mux_l2_in_0_:S 1e-06
3 mux_tree_tapbuf_size2_0_sram[1]:3 0.0001279353
4 mux_tree_tapbuf_size2_0_sram[1]:4 0.0001279353
5 mux_tree_tapbuf_size2_0_sram[1]:5 0.0001620114
6 mux_tree_tapbuf_size2_0_sram[1]:6 0.0001620114
7 mux_tree_tapbuf_size2_0_sram[1]:7 0.0001424449
8 mux_tree_tapbuf_size2_0_sram[1]:8 0.0001424449

*RES
0 mem_right_track_0\/sky130_fd_sc_hd__dfxbp_1_1_:Q mux_tree_tapbuf_size2_0_sram[1]:8 0.152
1 mux_tree_tapbuf_size2_0_sram[1]:3 mux_right_track_0\/mux_l2_in_0_:S 0.152
2 mux_tree_tapbuf_size2_0_sram[1]:4 mem_right_track_0\/FTB_1__32:A 0.152
3 mux_tree_tapbuf_size2_0_sram[1]:4 mux_tree_tapbuf_size2_0_sram[1]:3 0.001575893
4 mux_tree_tapbuf_size2_0_sram[1]:5 mux_tree_tapbuf_size2_0_sram[1]:4 0.0045
5 mux_tree_tapbuf_size2_0_sram[1]:7 mux_tree_tapbuf_size2_0_sram[1]:6 0.0045
6 mux_tree_tapbuf_size2_0_sram[1]:6 mux_tree_tapbuf_size2_0_sram[1]:5 0.002348214
7 mux_tree_tapbuf_size2_0_sram[1]:8 mux_tree_tapbuf_size2_0_sram[1]:7 0.001707589

*END

*D_NET mux_tree_tapbuf_size2_4_sram[1] 0.003338655 //LENGTH 28.235 LUMPCC 0.0002365365 DR

*CONN
*I mem_bottom_track_1\/sky130_fd_sc_hd__dfxbp_1_1_:Q O *L 0 *C 58.265 25.840
*I mux_bottom_track_1\/mux_l2_in_0_:S I *L 0.00357 *C 51.620 19.720
*I mem_bottom_track_1\/FTB_5__36:A I *L 0.001746 *C 49.680 31.280
*N mux_tree_tapbuf_size2_4_sram[1]:3 *C 49.718 31.280
*N mux_tree_tapbuf_size2_4_sram[1]:4 *C 50.095 31.280
*N mux_tree_tapbuf_size2_4_sram[1]:5 *C 50.140 31.235
*N mux_tree_tapbuf_size2_4_sram[1]:6 *C 50.140 19.765
*N mux_tree_tapbuf_size2_4_sram[1]:7 *C 50.185 19.720
*N mux_tree_tapbuf_size2_4_sram[1]:8 *C 51.620 19.742
*N mux_tree_tapbuf_size2_4_sram[1]:9 *C 51.640 20.400
*N mux_tree_tapbuf_size2_4_sram[1]:10 *C 51.695 20.400
*N mux_tree_tapbuf_size2_4_sram[1]:11 *C 57.455 20.400
*N mux_tree_tapbuf_size2_4_sram[1]:12 *C 57.500 20.445
*N mux_tree_tapbuf_size2_4_sram[1]:13 *C 57.500 25.795
*N mux_tree_tapbuf_size2_4_sram[1]:14 *C 57.545 25.840
*N mux_tree_tapbuf_size2_4_sram[1]:15 *C 58.228 25.840

*CAP
0 mem_bottom_track_1\/sky130_fd_sc_hd__dfxbp_1_1_:Q 1e-06
1 mux_bottom_track_1\/mux_l2_in_0_:S 1e-06
2 mem_bottom_track_1\/FTB_5__36:A 1e-06
3 mux_tree_tapbuf_size2_4_sram[1]:3 4.13715e-05
4 mux_tree_tapbuf_size2_4_sram[1]:4 4.13715e-05
5 mux_tree_tapbuf_size2_4_sram[1]:5 0.000657664
6 mux_tree_tapbuf_size2_4_sram[1]:6 0.000657664
7 mux_tree_tapbuf_size2_4_sram[1]:7 0.0001323957
8 mux_tree_tapbuf_size2_4_sram[1]:8 0.000182756
9 mux_tree_tapbuf_size2_4_sram[1]:9 6.12014e-05
10 mux_tree_tapbuf_size2_4_sram[1]:10 0.0002850061
11 mux_tree_tapbuf_size2_4_sram[1]:11 0.0002741651
12 mux_tree_tapbuf_size2_4_sram[1]:12 0.0002911694
13 mux_tree_tapbuf_size2_4_sram[1]:13 0.0002911694
14 mux_tree_tapbuf_size2_4_sram[1]:14 9.159202e-05
15 mux_tree_tapbuf_size2_4_sram[1]:15 9.159202e-05
16 mux_tree_tapbuf_size2_4_sram[1]:8 mux_bottom_track_1/sky130_fd_sc_hd__mux2_1_0_X[0]:4 7.179876e-07
17 mux_tree_tapbuf_size2_4_sram[1]:13 mux_bottom_track_1/sky130_fd_sc_hd__mux2_1_0_X[0]:7 1.585332e-05
18 mux_tree_tapbuf_size2_4_sram[1]:11 mux_bottom_track_1/sky130_fd_sc_hd__mux2_1_0_X[0]:5 4.06914e-05
19 mux_tree_tapbuf_size2_4_sram[1]:11 mux_bottom_track_1/sky130_fd_sc_hd__mux2_1_0_X[0]:3 6.100554e-05
20 mux_tree_tapbuf_size2_4_sram[1]:12 mux_bottom_track_1/sky130_fd_sc_hd__mux2_1_0_X[0]:6 1.585332e-05
21 mux_tree_tapbuf_size2_4_sram[1]:9 mux_bottom_track_1/sky130_fd_sc_hd__mux2_1_0_X[0]:3 7.179876e-07
22 mux_tree_tapbuf_size2_4_sram[1]:10 mux_bottom_track_1/sky130_fd_sc_hd__mux2_1_0_X[0]:2 6.100554e-05
23 mux_tree_tapbuf_size2_4_sram[1]:10 mux_bottom_track_1/sky130_fd_sc_hd__mux2_1_0_X[0]:4 4.06914e-05

*RES
0 mem_bottom_track_1\/sky130_fd_sc_hd__dfxbp_1_1_:Q mux_tree_tapbuf_size2_4_sram[1]:15 0.152
1 mux_tree_tapbuf_size2_4_sram[1]:8 mux_bottom_track_1\/mux_l2_in_0_:S 0.152
2 mux_tree_tapbuf_size2_4_sram[1]:8 mux_tree_tapbuf_size2_4_sram[1]:7 0.00128125
3 mux_tree_tapbuf_size2_4_sram[1]:7 mux_tree_tapbuf_size2_4_sram[1]:6 0.0045
4 mux_tree_tapbuf_size2_4_sram[1]:6 mux_tree_tapbuf_size2_4_sram[1]:5 0.01024107
5 mux_tree_tapbuf_size2_4_sram[1]:4 mux_tree_tapbuf_size2_4_sram[1]:3 0.0003370536
6 mux_tree_tapbuf_size2_4_sram[1]:5 mux_tree_tapbuf_size2_4_sram[1]:4 0.0045
7 mux_tree_tapbuf_size2_4_sram[1]:3 mem_bottom_track_1\/FTB_5__36:A 0.152
8 mux_tree_tapbuf_size2_4_sram[1]:15 mux_tree_tapbuf_size2_4_sram[1]:14 0.000609375
9 mux_tree_tapbuf_size2_4_sram[1]:14 mux_tree_tapbuf_size2_4_sram[1]:13 0.0045
10 mux_tree_tapbuf_size2_4_sram[1]:13 mux_tree_tapbuf_size2_4_sram[1]:12 0.004776786
11 mux_tree_tapbuf_size2_4_sram[1]:11 mux_tree_tapbuf_size2_4_sram[1]:10 0.005142857
12 mux_tree_tapbuf_size2_4_sram[1]:12 mux_tree_tapbuf_size2_4_sram[1]:11 0.0045
13 mux_tree_tapbuf_size2_4_sram[1]:9 mux_tree_tapbuf_size2_4_sram[1]:8 0.0005870537
14 mux_tree_tapbuf_size2_4_sram[1]:10 mux_tree_tapbuf_size2_4_sram[1]:9 4.910714e-05

*END

*D_NET mux_tree_tapbuf_size2_mem_3_ccff_tail[0] 0.001437795 //LENGTH 11.220 LUMPCC 0.0002865714 DR

*CONN
*I mem_right_track_24\/FTB_4__35:X O *L 0 *C 77.505 36.380
*I mem_bottom_track_1\/sky130_fd_sc_hd__dfxbp_1_0_:D I *L 0.001695 *C 70.095 33.660
*N mux_tree_tapbuf_size2_mem_3_ccff_tail[0]:2 *C 70.095 33.660
*N mux_tree_tapbuf_size2_mem_3_ccff_tail[0]:3 *C 69.920 33.660
*N mux_tree_tapbuf_size2_mem_3_ccff_tail[0]:4 *C 69.920 33.705
*N mux_tree_tapbuf_size2_mem_3_ccff_tail[0]:5 *C 69.920 36.335
*N mux_tree_tapbuf_size2_mem_3_ccff_tail[0]:6 *C 69.965 36.380
*N mux_tree_tapbuf_size2_mem_3_ccff_tail[0]:7 *C 77.468 36.380

*CAP
0 mem_right_track_24\/FTB_4__35:X 1e-06
1 mem_bottom_track_1\/sky130_fd_sc_hd__dfxbp_1_0_:D 1e-06
2 mux_tree_tapbuf_size2_mem_3_ccff_tail[0]:2 5.361986e-05
3 mux_tree_tapbuf_size2_mem_3_ccff_tail[0]:3 5.442664e-05
4 mux_tree_tapbuf_size2_mem_3_ccff_tail[0]:4 0.0001112819
5 mux_tree_tapbuf_size2_mem_3_ccff_tail[0]:5 0.0001112819
6 mux_tree_tapbuf_size2_mem_3_ccff_tail[0]:6 0.0004093064
7 mux_tree_tapbuf_size2_mem_3_ccff_tail[0]:7 0.0004093064
8 mux_tree_tapbuf_size2_mem_3_ccff_tail[0]:4 chanx_right_in[11]:3 8.013703e-05
9 mux_tree_tapbuf_size2_mem_3_ccff_tail[0]:5 chanx_right_in[11]:4 8.013703e-05
10 mux_tree_tapbuf_size2_mem_3_ccff_tail[0]:6 mux_tree_tapbuf_size2_3_sram[1]:5 6.314868e-05
11 mux_tree_tapbuf_size2_mem_3_ccff_tail[0]:7 mux_tree_tapbuf_size2_3_sram[1]:4 6.314868e-05

*RES
0 mem_right_track_24\/FTB_4__35:X mux_tree_tapbuf_size2_mem_3_ccff_tail[0]:7 0.152
1 mux_tree_tapbuf_size2_mem_3_ccff_tail[0]:2 mem_bottom_track_1\/sky130_fd_sc_hd__dfxbp_1_0_:D 0.152
2 mux_tree_tapbuf_size2_mem_3_ccff_tail[0]:3 mux_tree_tapbuf_size2_mem_3_ccff_tail[0]:2 9.51087e-05
3 mux_tree_tapbuf_size2_mem_3_ccff_tail[0]:4 mux_tree_tapbuf_size2_mem_3_ccff_tail[0]:3 0.0045
4 mux_tree_tapbuf_size2_mem_3_ccff_tail[0]:6 mux_tree_tapbuf_size2_mem_3_ccff_tail[0]:5 0.0045
5 mux_tree_tapbuf_size2_mem_3_ccff_tail[0]:5 mux_tree_tapbuf_size2_mem_3_ccff_tail[0]:4 0.002348214
6 mux_tree_tapbuf_size2_mem_3_ccff_tail[0]:7 mux_tree_tapbuf_size2_mem_3_ccff_tail[0]:6 0.006698661

*END

*D_NET mux_right_track_24/sky130_fd_sc_hd__mux2_1_0_X[0] 0.0005164468 //LENGTH 3.325 LUMPCC 0.0002505752 DR

*CONN
*I mux_right_track_24\/mux_l1_in_0_:X O *L 0 *C 90.905 36.380
*I mux_right_track_24\/mux_l2_in_0_:A1 I *L 0.00198 *C 93.940 36.380
*N mux_right_track_24/sky130_fd_sc_hd__mux2_1_0_X[0]:2 *C 93.903 36.380
*N mux_right_track_24/sky130_fd_sc_hd__mux2_1_0_X[0]:3 *C 90.943 36.380

*CAP
0 mux_right_track_24\/mux_l1_in_0_:X 1e-06
1 mux_right_track_24\/mux_l2_in_0_:A1 1e-06
2 mux_right_track_24/sky130_fd_sc_hd__mux2_1_0_X[0]:2 0.0001319358
3 mux_right_track_24/sky130_fd_sc_hd__mux2_1_0_X[0]:3 0.0001319358
4 mux_right_track_24/sky130_fd_sc_hd__mux2_1_0_X[0]:2 mux_tree_tapbuf_size2_3_sram[1]:3 0.0001252876
5 mux_right_track_24/sky130_fd_sc_hd__mux2_1_0_X[0]:3 mux_tree_tapbuf_size2_3_sram[1]:4 0.0001252876

*RES
0 mux_right_track_24\/mux_l1_in_0_:X mux_right_track_24/sky130_fd_sc_hd__mux2_1_0_X[0]:3 0.152
1 mux_right_track_24/sky130_fd_sc_hd__mux2_1_0_X[0]:2 mux_right_track_24\/mux_l2_in_0_:A1 0.152
2 mux_right_track_24/sky130_fd_sc_hd__mux2_1_0_X[0]:3 mux_right_track_24/sky130_fd_sc_hd__mux2_1_0_X[0]:2 0.002642857

*END

*D_NET mux_bottom_track_9/sky130_fd_sc_hd__mux2_1_1_X[0] 0.00102253 //LENGTH 6.675 LUMPCC 0 DR

*CONN
*I mux_bottom_track_9\/mux_l2_in_0_:X O *L 0 *C 49.395 14.280
*I mux_bottom_track_9\/sky130_fd_sc_hd__buf_4_0_:A I *L 0.002576 *C 45.765 12.070
*N mux_bottom_track_9/sky130_fd_sc_hd__mux2_1_1_X[0]:2 *C 45.803 11.963
*N mux_bottom_track_9/sky130_fd_sc_hd__mux2_1_1_X[0]:3 *C 49.175 11.900
*N mux_bottom_track_9/sky130_fd_sc_hd__mux2_1_1_X[0]:4 *C 49.220 11.945
*N mux_bottom_track_9/sky130_fd_sc_hd__mux2_1_1_X[0]:5 *C 49.220 14.235
*N mux_bottom_track_9/sky130_fd_sc_hd__mux2_1_1_X[0]:6 *C 49.220 14.280
*N mux_bottom_track_9/sky130_fd_sc_hd__mux2_1_1_X[0]:7 *C 49.395 14.280

*CAP
0 mux_bottom_track_9\/mux_l2_in_0_:X 1e-06
1 mux_bottom_track_9\/sky130_fd_sc_hd__buf_4_0_:A 1e-06
2 mux_bottom_track_9/sky130_fd_sc_hd__mux2_1_1_X[0]:2 0.0002999853
3 mux_bottom_track_9/sky130_fd_sc_hd__mux2_1_1_X[0]:3 0.0002999853
4 mux_bottom_track_9/sky130_fd_sc_hd__mux2_1_1_X[0]:4 0.0001493804
5 mux_bottom_track_9/sky130_fd_sc_hd__mux2_1_1_X[0]:5 0.0001493804
6 mux_bottom_track_9/sky130_fd_sc_hd__mux2_1_1_X[0]:6 6.245475e-05
7 mux_bottom_track_9/sky130_fd_sc_hd__mux2_1_1_X[0]:7 5.934436e-05

*RES
0 mux_bottom_track_9\/mux_l2_in_0_:X mux_bottom_track_9/sky130_fd_sc_hd__mux2_1_1_X[0]:7 0.152
1 mux_bottom_track_9/sky130_fd_sc_hd__mux2_1_1_X[0]:2 mux_bottom_track_9\/sky130_fd_sc_hd__buf_4_0_:A 0.152
2 mux_bottom_track_9/sky130_fd_sc_hd__mux2_1_1_X[0]:3 mux_bottom_track_9/sky130_fd_sc_hd__mux2_1_1_X[0]:2 0.003011161
3 mux_bottom_track_9/sky130_fd_sc_hd__mux2_1_1_X[0]:4 mux_bottom_track_9/sky130_fd_sc_hd__mux2_1_1_X[0]:3 0.0045
4 mux_bottom_track_9/sky130_fd_sc_hd__mux2_1_1_X[0]:6 mux_bottom_track_9/sky130_fd_sc_hd__mux2_1_1_X[0]:5 0.0045
5 mux_bottom_track_9/sky130_fd_sc_hd__mux2_1_1_X[0]:5 mux_bottom_track_9/sky130_fd_sc_hd__mux2_1_1_X[0]:4 0.002044643
6 mux_bottom_track_9/sky130_fd_sc_hd__mux2_1_1_X[0]:7 mux_bottom_track_9/sky130_fd_sc_hd__mux2_1_1_X[0]:6 9.510869e-05

*END

*D_NET chany_bottom_out[7] 0.0009380062 //LENGTH 6.715 LUMPCC 0.0003064641 DR

*CONN
*I ropt_mt_inst_761:X O *L 0 *C 69.000 7.140
*P chany_bottom_out[7] O *L 0.7423 *C 68.540 1.325
*N chany_bottom_out[7]:2 *C 68.540 2.040
*N chany_bottom_out[7]:3 *C 69.000 2.040
*N chany_bottom_out[7]:4 *C 69.000 7.095
*N chany_bottom_out[7]:5 *C 69.000 7.140

*CAP
0 ropt_mt_inst_761:X 1e-06
1 chany_bottom_out[7] 4.986964e-05
2 chany_bottom_out[7]:2 7.22745e-05
3 chany_bottom_out[7]:3 0.0002490498
4 chany_bottom_out[7]:4 0.0002266449
5 chany_bottom_out[7]:5 3.270323e-05
6 chany_bottom_out[7]:4 ropt_net_146:5 5.757513e-05
7 chany_bottom_out[7]:3 ropt_net_146:4 5.757513e-05
8 chany_bottom_out[7]:4 ropt_net_122:5 8.821252e-05
9 chany_bottom_out[7]:2 ropt_net_122:2 7.444386e-06
10 chany_bottom_out[7]:3 ropt_net_122:3 7.444386e-06
11 chany_bottom_out[7]:3 ropt_net_122:4 8.821252e-05

*RES
0 ropt_mt_inst_761:X chany_bottom_out[7]:5 0.152
1 chany_bottom_out[7]:5 chany_bottom_out[7]:4 0.0045
2 chany_bottom_out[7]:4 chany_bottom_out[7]:3 0.004513393
3 chany_bottom_out[7]:2 chany_bottom_out[7] 0.0006383929
4 chany_bottom_out[7]:3 chany_bottom_out[7]:2 0.0004107143

*END

*D_NET chanx_right_out[7] 0.0009260164 //LENGTH 7.480 LUMPCC 0 DR

*CONN
*I ropt_mt_inst_765:X O *L 0 *C 110.135 98.600
*P chanx_right_out[7] O *L 0.7423 *C 111.863 93.840
*N chanx_right_out[7]:2 *C 111.780 93.840
*N chanx_right_out[7]:3 *C 111.780 93.840
*N chanx_right_out[7]:4 *C 111.320 93.840
*N chanx_right_out[7]:5 *C 111.320 98.555
*N chanx_right_out[7]:6 *C 111.275 98.600
*N chanx_right_out[7]:7 *C 110.172 98.600

*CAP
0 ropt_mt_inst_765:X 1e-06
1 chanx_right_out[7] 2.943837e-05
2 chanx_right_out[7]:2 2.943837e-05
3 chanx_right_out[7]:3 6.82142e-05
4 chanx_right_out[7]:4 0.0003280828
5 chanx_right_out[7]:5 0.0002947135
6 chanx_right_out[7]:6 8.756459e-05
7 chanx_right_out[7]:7 8.756459e-05

*RES
0 ropt_mt_inst_765:X chanx_right_out[7]:7 0.152
1 chanx_right_out[7]:7 chanx_right_out[7]:6 0.000984375
2 chanx_right_out[7]:6 chanx_right_out[7]:5 0.0045
3 chanx_right_out[7]:5 chanx_right_out[7]:4 0.004209822
4 chanx_right_out[7]:3 chanx_right_out[7]:2 0.00341
5 chanx_right_out[7]:2 chanx_right_out[7] 2.35e-05
6 chanx_right_out[7]:4 chanx_right_out[7]:3 0.0004107143

*END

*D_NET ropt_net_145 0.0005485233 //LENGTH 3.760 LUMPCC 0.0002317557 DR

*CONN
*I ropt_mt_inst_738:X O *L 0 *C 69.175 4.760
*I ropt_mt_inst_761:A I *L 0.001767 *C 68.080 6.800
*N ropt_net_145:2 *C 68.080 6.800
*N ropt_net_145:3 *C 68.080 6.755
*N ropt_net_145:4 *C 68.080 4.805
*N ropt_net_145:5 *C 68.125 4.760
*N ropt_net_145:6 *C 69.138 4.760

*CAP
0 ropt_mt_inst_738:X 1e-06
1 ropt_mt_inst_761:A 1e-06
2 ropt_net_145:2 3.679109e-05
3 ropt_net_145:3 5.55705e-05
4 ropt_net_145:4 5.55705e-05
5 ropt_net_145:5 8.341776e-05
6 ropt_net_145:6 8.341776e-05
7 ropt_net_145:4 chany_bottom_out[12] 4.552572e-05
8 ropt_net_145:3 chany_bottom_out[12]:2 4.552572e-05
9 ropt_net_145:6 ropt_net_122:3 8.980812e-06
10 ropt_net_145:5 ropt_net_122:2 8.980812e-06
11 ropt_net_145:4 ropt_net_122:4 6.13713e-05
12 ropt_net_145:3 ropt_net_122:5 6.13713e-05

*RES
0 ropt_mt_inst_738:X ropt_net_145:6 0.152