*SPEF "1481-1998"
*DESIGN "sb_0__1_"
*DATE "Mon Oct 26 23:03:32 2020"
*
*
*
*
*DIVIDER /
*DELIMITER :
*T_UNIT 1 NS
*C_UNIT 1 PF
*R_UNIT 1 KOHM
*L_UNIT 1 HENRY

// XY_UNIT 1 UM
// PARASITIC_TECH nominal at 25.000 degree

*PORTS
prog_clk[0] I *C 0.690 59.160
chany_top_in[0] I *C 67.620 129.880
chany_top_in[1] I *C 62.100 129.880
chany_top_in[2] I *C 70.380 129.880
chany_top_in[3] I *C 45.540 129.880
chany_top_in[4] I *C 43.700 129.880
chany_top_in[5] I *C 28.980 129.880
chany_top_in[6] I *C 69.460 129.880
chany_top_in[7] I *C 68.540 129.880
chany_top_in[8] I *C 63.020 129.880
chany_top_in[9] I *C 51.980 129.880
chany_top_in[10] I *C 50.140 129.880
chany_top_in[11] I *C 41.860 129.880
chany_top_in[12] I *C 72.220 129.880
chany_top_in[13] I *C 20.240 129.880
chany_top_in[14] I *C 29.440 129.880
chany_top_in[15] I *C 49.680 129.880
chany_top_in[16] I *C 58.880 129.880
chany_top_in[17] I *C 14.720 129.880
chany_top_in[18] I *C 44.160 129.880
chany_top_in[19] I *C 47.380 129.880
top_left_grid_pin_1_[0] I *C 2.300 129.880
chanx_right_in[0] I *C 112.470 48.960
chanx_right_in[1] I *C 112.470 99.280
chanx_right_in[2] I *C 112.470 55.760
chanx_right_in[3] I *C 112.470 43.520
chanx_right_in[4] I *C 112.470 93.840
chanx_right_in[5] I *C 112.470 95.200
chanx_right_in[6] I *C 112.470 77.520
chanx_right_in[7] I *C 112.470 69.360
chanx_right_in[8] I *C 112.470 44.880
chanx_right_in[9] I *C 112.470 51.000
chanx_right_in[10] I *C 112.470 36.720
chanx_right_in[11] I *C 112.470 38.080
chanx_right_in[12] I *C 112.470 96.560
chanx_right_in[13] I *C 112.470 32.640
chanx_right_in[14] I *C 112.470 91.120
chanx_right_in[15] I *C 112.470 57.120
chanx_right_in[16] I *C 112.470 39.440
chanx_right_in[17] I *C 112.470 34.000
chanx_right_in[18] I *C 112.470 65.280
chanx_right_in[19] I *C 112.470 31.280
right_top_grid_pin_42_[0] I *C 109.940 102.680
right_top_grid_pin_43_[0] I *C 83.950 126.480
right_top_grid_pin_44_[0] I *C 110.860 102.680
right_top_grid_pin_45_[0] I *C 109.020 102.680
right_top_grid_pin_46_[0] I *C 83.950 119.000
right_top_grid_pin_47_[0] I *C 83.950 117.640
right_top_grid_pin_48_[0] I *C 107.180 102.680
right_top_grid_pin_49_[0] I *C 108.100 102.680
chany_bottom_in[0] I *C 65.780 0.680
chany_bottom_in[1] I *C 14.720 0.680
chany_bottom_in[2] I *C 71.300 0.680
chany_bottom_in[3] I *C 13.800 0.680
chany_bottom_in[4] I *C 73.140 0.680
chany_bottom_in[5] I *C 49.220 0.680
chany_bottom_in[6] I *C 52.900 0.680
chany_bottom_in[7] I *C 22.080 0.680
chany_bottom_in[8] I *C 23.920 0.680
chany_bottom_in[9] I *C 23.000 0.680
chany_bottom_in[10] I *C 51.980 0.680
chany_bottom_in[11] I *C 30.820 0.680
chany_bottom_in[12] I *C 63.940 0.680
chany_bottom_in[13] I *C 72.220 0.680
chany_bottom_in[14] I *C 43.700 0.680
chany_bottom_in[15] I *C 46.460 0.680
chany_bottom_in[16] I *C 41.860 0.680
chany_bottom_in[17] I *C 29.900 0.680
chany_bottom_in[18] I *C 26.680 0.680
chany_bottom_in[19] I *C 24.840 0.680
bottom_left_grid_pin_1_[0] I *C 2.300 0.680
ccff_head[0] I *C 112.470 88.400
chany_top_out[0] O *C 42.780 129.880
chany_top_out[1] O *C 25.760 129.880
chany_top_out[2] O *C 71.300 129.880
chany_top_out[3] O *C 49.220 129.880
chany_top_out[4] O *C 36.340 129.880
chany_top_out[5] O *C 44.620 129.880
chany_top_out[6] O *C 5.520 129.880
chany_top_out[7] O *C 69.000 129.880
chany_top_out[8] O *C 22.080 129.880
chany_top_out[9] O *C 9.200 129.880
chany_top_out[10] O *C 46.460 129.880
chany_top_out[11] O *C 51.060 129.880
chany_top_out[12] O *C 7.360 129.880
chany_top_out[13] O *C 23.920 129.880
chany_top_out[14] O *C 7.360 129.880
chany_top_out[15] O *C 46.000 129.880
chany_top_out[16] O *C 48.300 129.880
chany_top_out[17] O *C 52.900 129.880
chany_top_out[18] O *C 47.840 129.880
chany_top_out[19] O *C 25.760 129.880
chanx_right_out[0] O *C 112.470 84.320
chanx_right_out[1] O *C 112.470 82.960
chanx_right_out[2] O *C 112.470 62.560
chanx_right_out[3] O *C 112.470 74.120
chanx_right_out[4] O *C 112.470 80.240
chanx_right_out[5] O *C 112.470 72.080
chanx_right_out[6] O *C 112.470 58.480
chanx_right_out[7] O *C 112.470 35.360
chanx_right_out[8] O *C 112.470 46.240
chanx_right_out[9] O *C 112.470 63.920
chanx_right_out[10] O *C 112.470 61.200
chanx_right_out[11] O *C 112.470 78.880
chanx_right_out[12] O *C 112.470 42.160
chanx_right_out[13] O *C 112.470 85.680
chanx_right_out[14] O *C 112.470 47.600
chanx_right_out[15] O *C 112.470 68.000
chanx_right_out[16] O *C 112.470 40.800
chanx_right_out[17] O *C 112.470 66.640
chanx_right_out[18] O *C 112.470 52.360
chanx_right_out[19] O *C 112.470 89.760
chany_bottom_out[0] O *C 50.140 0.680
chany_bottom_out[1] O *C 34.500 0.680
chany_bottom_out[2] O *C 66.700 0.680
chany_bottom_out[3] O *C 44.620 0.680
chany_bottom_out[4] O *C 51.060 0.680
chany_bottom_out[5] O *C 45.540 0.680
chany_bottom_out[6] O *C 70.380 0.680
chany_bottom_out[7] O *C 68.540 0.680
chany_bottom_out[8] O *C 69.460 0.680
chany_bottom_out[9] O *C 25.760 0.680
chany_bottom_out[10] O *C 42.780 0.680
chany_bottom_out[11] O *C 48.300 0.680
chany_bottom_out[12] O *C 67.620 0.680
chany_bottom_out[13] O *C 49.680 0.680
chany_bottom_out[14] O *C 46.000 0.680
chany_bottom_out[15] O *C 47.840 0.680
chany_bottom_out[16] O *C 28.520 0.680
chany_bottom_out[17] O *C 47.380 0.680
chany_bottom_out[18] O *C 23.920 0.680
chany_bottom_out[19] O *C 25.760 0.680
ccff_tail[0] O *C 54.280 0.680
VDD I *C 56.580 65.280
VSS I *C 56.580 65.280

*D_NET chany_top_in[4] 0.02109228 //LENGTH 164.615 LUMPCC 0.006680334 DR

*CONN
*P chany_top_in[4] I *L 0.29796 *C 43.700 129.270
*I BUFT_RR_75:A I *L 0.001776 *C 45.540 17.680
*I mux_bottom_track_3\/mux_l1_in_0_:A1 I *L 0.00198 *C 67.160 41.820
*I mux_right_track_2\/mux_l1_in_0_:A0 I *L 0.001631 *C 70.095 126.140
*N chany_top_in[4]:4 *C 70.058 126.140
*N chany_top_in[4]:5 *C 65.840 45.560
*N chany_top_in[4]:6 *C 67.123 41.820
*N chany_top_in[4]:7 *C 66.240 41.820
*N chany_top_in[4]:8 *C 45.578 17.680
*N chany_top_in[4]:9 *C 54.280 17.680
*N chany_top_in[4]:10 *C 54.280 18.360
*N chany_top_in[4]:11 *C 60.215 18.360
*N chany_top_in[4]:12 *C 60.260 18.405
*N chany_top_in[4]:13 *C 60.260 41.435
*N chany_top_in[4]:14 *C 60.305 41.480
*N chany_top_in[4]:15 *C 66.240 41.510
*N chany_top_in[4]:16 *C 66.240 41.525
*N chany_top_in[4]:17 *C 66.240 45.503
*N chany_top_in[4]:18 *C 66.240 45.560
*N chany_top_in[4]:19 *C 66.240 45.568
*N chany_top_in[4]:20 *C 66.240 95.395
*N chany_top_in[4]:21 *C 66.240 124.433
*N chany_top_in[4]:22 *C 66.255 124.440
*N chany_top_in[4]:23 *C 66.698 124.440
*N chany_top_in[4]:24 *C 66.700 124.498
*N chany_top_in[4]:25 *C 66.700 126.095
*N chany_top_in[4]:26 *C 66.700 126.140
*N chany_top_in[4]:27 *C 43.745 126.140
*N chany_top_in[4]:28 *C 43.700 126.185

*CAP
0 chany_top_in[4] 0.0001781548
1 BUFT_RR_75:A 1e-06
2 mux_bottom_track_3\/mux_l1_in_0_:A1 1e-06
3 mux_right_track_2\/mux_l1_in_0_:A0 1e-06
4 chany_top_in[4]:4 0.0002326291
5 chany_top_in[4]:5 7.230758e-05
6 chany_top_in[4]:6 9.630208e-05
7 chany_top_in[4]:7 0.0001262423
8 chany_top_in[4]:8 0.000558835
9 chany_top_in[4]:9 0.0006021236
10 chany_top_in[4]:10 0.0004394057
11 chany_top_in[4]:11 0.0003961172
12 chany_top_in[4]:12 0.001084032
13 chany_top_in[4]:13 0.001084032
14 chany_top_in[4]:14 0.0004483831
15 chany_top_in[4]:15 0.0004783233
16 chany_top_in[4]:16 0.0002489884
17 chany_top_in[4]:17 0.0002489884
18 chany_top_in[4]:18 7.230758e-05
19 chany_top_in[4]:19 0.001416877
20 chany_top_in[4]:20 0.002583887
21 chany_top_in[4]:21 0.00116701
22 chany_top_in[4]:22 6.01476e-05
23 chany_top_in[4]:23 6.01476e-05
24 chany_top_in[4]:24 0.0001092136
25 chany_top_in[4]:25 0.0001092136
26 chany_top_in[4]:26 0.001310982
27 chany_top_in[4]:27 0.001046137
28 chany_top_in[4]:28 0.0001781548
29 chany_top_in[4]:16 chany_top_in[6]:15 2.767161e-08
30 chany_top_in[4]:16 chany_top_in[6]:19 1.085351e-06
31 chany_top_in[4]:17 chany_top_in[6]:20 1.085351e-06
32 chany_top_in[4]:17 chany_top_in[6]:19 2.767161e-08
33 chany_top_in[4]:19 chany_top_in[6]:23 0.0009255211
34 chany_top_in[4]:21 chany_top_in[6]:25 0.0004320639
35 chany_top_in[4]:21 chany_top_in[6]:24 8.809994e-05
36 chany_top_in[4]:20 chany_top_in[6]:23 8.809994e-05
37 chany_top_in[4]:20 chany_top_in[6]:24 0.001357585
38 chany_top_in[4]:27 chany_bottom_in[6]:7 0.0002662871
39 chany_top_in[4]:26 chany_bottom_in[6]:7 2.26894e-05
40 chany_top_in[4]:26 chany_bottom_in[6]:6 0.0002662871
41 chany_top_in[4]:4 chany_bottom_in[6]:6 2.26894e-05
42 chany_top_in[4]:19 chany_bottom_in[12]:43 0.0004683808
43 chany_top_in[4]:19 chany_bottom_in[12]:41 0.0002471306
44 chany_top_in[4]:19 chany_bottom_in[12]:42 0.0001724076
45 chany_top_in[4]:20 chany_bottom_in[12]:31 0.0002471306
46 chany_top_in[4]:20 chany_bottom_in[12]:41 0.0001724076
47 chany_top_in[4]:20 chany_bottom_in[12]:42 0.0004683808
48 chany_top_in[4]:12 mux_bottom_track_3/sky130_fd_sc_hd__mux2_1_3_X[0]:4 5.750454e-05
49 chany_top_in[4]:13 mux_bottom_track_3/sky130_fd_sc_hd__mux2_1_3_X[0]:5 5.750454e-05
50 chany_top_in[4]:12 mux_bottom_track_3/sky130_fd_sc_hd__mux2_1_4_X[0]:19 0.0001320814
51 chany_top_in[4]:13 mux_bottom_track_3/sky130_fd_sc_hd__mux2_1_4_X[0]:20 0.0001320814
52 chany_top_in[4]:27 ropt_net_238:5 0.0002588432
53 chany_top_in[4]:26 ropt_net_238:6 0.0002588432
54 chany_top_in[4]:27 ropt_net_232:4 0.0001992463
55 chany_top_in[4]:26 ropt_net_232:5 0.0001992463
56 chany_top_in[4] ropt_net_217:4 1.822503e-05
57 chany_top_in[4]:27 ropt_net_217:3 4.422649e-05
58 chany_top_in[4]:27 ropt_net_217:6 6.346746e-06
59 chany_top_in[4]:28 ropt_net_217:5 1.822503e-05
60 chany_top_in[4]:26 ropt_net_217:2 4.422649e-05
61 chany_top_in[4]:26 ropt_net_217:5 6.346746e-06

*RES
0 chany_top_in[4] chany_top_in[4]:28 0.002754464
1 chany_top_in[4]:6 mux_bottom_track_3\/mux_l1_in_0_:A1 0.152
2 chany_top_in[4]:8 BUFT_RR_75:A 0.152
3 chany_top_in[4]:11 chany_top_in[4]:10 0.005299107
4 chany_top_in[4]:12 chany_top_in[4]:11 0.0045
5 chany_top_in[4]:14 chany_top_in[4]:13 0.0045
6 chany_top_in[4]:13 chany_top_in[4]:12 0.0205625
7 chany_top_in[4]:27 chany_top_in[4]:26 0.02049554
8 chany_top_in[4]:28 chany_top_in[4]:27 0.0045
9 chany_top_in[4]:15 chany_top_in[4]:14 0.005299107
10 chany_top_in[4]:15 chany_top_in[4]:7 0.0002767857
11 chany_top_in[4]:16 chany_top_in[4]:15 0.0045
12 chany_top_in[4]:17 chany_top_in[4]:16 0.003551339
13 chany_top_in[4]:18 chany_top_in[4]:17 0.00341
14 chany_top_in[4]:18 chany_top_in[4]:5 5.696969e-05
15 chany_top_in[4]:19 chany_top_in[4]:18 0.00341
16 chany_top_in[4]:22 chany_top_in[4]:21 0.00341
17 chany_top_in[4]:21 chany_top_in[4]:20 0.004549208
18 chany_top_in[4]:24 chany_top_in[4]:23 0.00341
19 chany_top_in[4]:23 chany_top_in[4]:22 6.499219e-05
20 chany_top_in[4]:26 chany_top_in[4]:25 0.0045
21 chany_top_in[4]:26 chany_top_in[4]:4 0.002997768
22 chany_top_in[4]:25 chany_top_in[4]:24 0.001426339
23 chany_top_in[4]:4 mux_right_track_2\/mux_l1_in_0_:A0 0.152
24 chany_top_in[4]:9 chany_top_in[4]:8 0.007770089
25 chany_top_in[4]:10 chany_top_in[4]:9 0.0006071429
26 chany_top_in[4]:7 chany_top_in[4]:6 0.0007879465
27 chany_top_in[4]:20 chany_top_in[4]:19 0.007806308

*END

*D_NET chanx_right_out[7] 0.00664926 //LENGTH 48.785 LUMPCC 0.0009741295 DR

*CONN
*I mux_right_track_14\/sky130_fd_sc_hd__buf_4_0_:X O *L 0 *C 102.120 71.740
*P chanx_right_out[7] O *L 0.7423 *C 111.855 35.360
*N chanx_right_out[7]:2 *C 111.780 36.040
*N chanx_right_out[7]:3 *C 104.900 36.040
*N chanx_right_out[7]:4 *C 104.880 36.047
*N chanx_right_out[7]:5 *C 104.880 70.713
*N chanx_right_out[7]:6 *C 104.860 70.720
*N chanx_right_out[7]:7 *C 101.668 70.720
*N chanx_right_out[7]:8 *C 101.660 70.778
*N chanx_right_out[7]:9 *C 101.660 71.695
*N chanx_right_out[7]:10 *C 101.705 71.740
*N chanx_right_out[7]:11 *C 102.083 71.740

*CAP
0 mux_right_track_14\/sky130_fd_sc_hd__buf_4_0_:X 1e-06
1 chanx_right_out[7] 1e-09
2 chanx_right_out[7]:2 0.0002815971
3 chanx_right_out[7]:3 0.0003077994
4 chanx_right_out[7]:4 0.00213971
5 chanx_right_out[7]:5 0.00213971
6 chanx_right_out[7]:6 0.0002659779
7 chanx_right_out[7]:7 0.0002659779
8 chanx_right_out[7]:8 8.28078e-05
9 chanx_right_out[7]:9 8.28078e-05
10 chanx_right_out[7]:10 5.387207e-05
11 chanx_right_out[7]:11 5.387207e-05
12 chanx_right_out[7]:3 chanx_right_in[10]:11 0.0004046765
13 chanx_right_out[7]:2 chanx_right_in[10] 0.0004046765
14 chanx_right_out[7] ropt_net_213:5 7.476562e-05
15 chanx_right_out[7]:3 ropt_net_213:7 7.622629e-06
16 chanx_right_out[7]:2 ropt_net_213:6 7.622629e-06
17 chanx_right_out[7]:2 ropt_net_213:4 7.476562e-05

*RES
0 mux_right_track_14\/sky130_fd_sc_hd__buf_4_0_:X chanx_right_out[7]:11 0.152
1 chanx_right_out[7]:3 chanx_right_out[7]:2 0.001077867
2 chanx_right_out[7]:4 chanx_right_out[7]:3 0.00341
3 chanx_right_out[7]:6 chanx_right_out[7]:5 0.00341
4 chanx_right_out[7]:5 chanx_right_out[7]:4 0.005430849
5 chanx_right_out[7]:8 chanx_right_out[7]:7 0.00341
6 chanx_right_out[7]:7 chanx_right_out[7]:6 0.0005001583
7 chanx_right_out[7]:10 chanx_right_out[7]:9 0.0045
8 chanx_right_out[7]:9 chanx_right_out[7]:8 0.0008191965
9 chanx_right_out[7]:11 chanx_right_out[7]:10 0.0003370536
10 chanx_right_out[7]:2 chanx_right_out[7] 0.0001065333

*END

*D_NET ropt_net_191 0.001311501 //LENGTH 12.195 LUMPCC 9.483719e-05 DR

*CONN
*I mux_bottom_track_25\/BUFT_P_147:X O *L 0 *C 66.015 14.620
*I ropt_mt_inst_812:A I *L 0.001766 *C 65.780 6.800
*N ropt_net_191:2 *C 65.818 6.800
*N ropt_net_191:3 *C 67.575 6.800
*N ropt_net_191:4 *C 67.620 6.845
*N ropt_net_191:5 *C 67.620 14.575
*N ropt_net_191:6 *C 67.575 14.620
*N ropt_net_191:7 *C 66.053 14.620

*CAP
0 mux_bottom_track_25\/BUFT_P_147:X 1e-06
1 ropt_mt_inst_812:A 1e-06
2 ropt_net_191:2 0.0001213678
3 ropt_net_191:3 0.0001213678
4 ropt_net_191:4 0.0003765245
5 ropt_net_191:5 0.0003765245
6 ropt_net_191:6 0.0001094395
7 ropt_net_191:7 0.0001094395
8 ropt_net_191:4 chany_bottom_out[2] 4.741859e-05
9 ropt_net_191:5 chany_bottom_out[2]:2 4.741859e-05

*RES
0 mux_bottom_track_25\/BUFT_P_147:X ropt_net_191:7 0.152
1 ropt_net_191:2 ropt_mt_inst_812:A 0.152
2 ropt_net_191:3 ropt_net_191:2 0.001569196
3 ropt_net_191:4 ropt_net_191:3 0.0045
4 ropt_net_191:6 ropt_net_191:5 0.0045
5 ropt_net_191:5 ropt_net_191:4 0.006901786
6 ropt_net_191:7 ropt_net_191:6 0.001359375

*END

*D_NET mux_tree_tapbuf_size3_1_sram[0] 0.005649967 //LENGTH 43.760 LUMPCC 0.001903494 DR

*CONN
*I mem_right_track_18\/sky130_fd_sc_hd__dfxbp_1_0_:Q O *L 0 *C 97.365 74.800
*I mux_right_track_18\/mux_l1_in_1_:S I *L 0.00357 *C 78.560 69.360
*I mux_right_track_18\/mux_l1_in_0_:S I *L 0.00357 *C 76.260 85.000
*I mem_right_track_18\/sky130_fd_sc_hd__dfxbp_1_1_:D I *L 0.001695 *C 75.615 80.580
*N mux_tree_tapbuf_size3_1_sram[0]:4 *C 75.615 80.580
*N mux_tree_tapbuf_size3_1_sram[0]:5 *C 76.245 85.000
*N mux_tree_tapbuf_size3_1_sram[0]:6 *C 75.922 85.000
*N mux_tree_tapbuf_size3_1_sram[0]:7 *C 75.900 84.955
*N mux_tree_tapbuf_size3_1_sram[0]:8 *C 75.900 80.625
*N mux_tree_tapbuf_size3_1_sram[0]:9 *C 75.945 80.580
*N mux_tree_tapbuf_size3_1_sram[0]:10 *C 78.615 80.580
*N mux_tree_tapbuf_size3_1_sram[0]:11 *C 78.660 80.535
*N mux_tree_tapbuf_size3_1_sram[0]:12 *C 78.560 69.360
*N mux_tree_tapbuf_size3_1_sram[0]:13 *C 78.660 69.405
*N mux_tree_tapbuf_size3_1_sram[0]:14 *C 78.660 70.720
*N mux_tree_tapbuf_size3_1_sram[0]:15 *C 78.668 70.720
*N mux_tree_tapbuf_size3_1_sram[0]:16 *C 97.053 70.720
*N mux_tree_tapbuf_size3_1_sram[0]:17 *C 97.060 70.778
*N mux_tree_tapbuf_size3_1_sram[0]:18 *C 97.060 74.755
*N mux_tree_tapbuf_size3_1_sram[0]:19 *C 97.060 74.800
*N mux_tree_tapbuf_size3_1_sram[0]:20 *C 97.365 74.800

*CAP
0 mem_right_track_18\/sky130_fd_sc_hd__dfxbp_1_0_:Q 1e-06
1 mux_right_track_18\/mux_l1_in_1_:S 1e-06
2 mux_right_track_18\/mux_l1_in_0_:S 1e-06
3 mem_right_track_18\/sky130_fd_sc_hd__dfxbp_1_1_:D 1e-06
4 mux_tree_tapbuf_size3_1_sram[0]:4 5.441353e-05
5 mux_tree_tapbuf_size3_1_sram[0]:5 5.044228e-05
6 mux_tree_tapbuf_size3_1_sram[0]:6 5.044228e-05
7 mux_tree_tapbuf_size3_1_sram[0]:7 0.0002101419
8 mux_tree_tapbuf_size3_1_sram[0]:8 0.0002101419
9 mux_tree_tapbuf_size3_1_sram[0]:9 0.0002066832
10 mux_tree_tapbuf_size3_1_sram[0]:10 0.0001865608
11 mux_tree_tapbuf_size3_1_sram[0]:11 0.0004790561
12 mux_tree_tapbuf_size3_1_sram[0]:12 2.886196e-05
13 mux_tree_tapbuf_size3_1_sram[0]:13 8.198502e-05
14 mux_tree_tapbuf_size3_1_sram[0]:14 0.0005987764
15 mux_tree_tapbuf_size3_1_sram[0]:15 0.000528159
16 mux_tree_tapbuf_size3_1_sram[0]:16 0.000528159
17 mux_tree_tapbuf_size3_1_sram[0]:17 0.0002132718
18 mux_tree_tapbuf_size3_1_sram[0]:18 0.0002132718
19 mux_tree_tapbuf_size3_1_sram[0]:19 5.276204e-05
20 mux_tree_tapbuf_size3_1_sram[0]:20 4.9343e-05
21 mux_tree_tapbuf_size3_1_sram[0]:15 chanx_right_in[7]:10 0.0004247676
22 mux_tree_tapbuf_size3_1_sram[0]:16 chanx_right_in[7] 0.0004247676
23 mux_tree_tapbuf_size3_1_sram[0]:15 chanx_right_in[12]:10 0.0003941383
24 mux_tree_tapbuf_size3_1_sram[0]:17 chanx_right_in[12]:12 5.753229e-06
25 mux_tree_tapbuf_size3_1_sram[0]:16 chanx_right_in[12]:11 0.0003941383
26 mux_tree_tapbuf_size3_1_sram[0]:18 chanx_right_in[12]:13 5.753229e-06
27 mux_tree_tapbuf_size3_1_sram[0]:14 mux_tree_tapbuf_size3_mem_1_ccff_tail[0]:4 6.051376e-05
28 mux_tree_tapbuf_size3_1_sram[0]:11 mux_tree_tapbuf_size3_mem_1_ccff_tail[0]:5 6.051376e-05
29 mux_tree_tapbuf_size3_1_sram[0]:14 mux_right_track_18/sky130_fd_sc_hd__mux2_1_0_X[0]:4 3.446703e-05
30 mux_tree_tapbuf_size3_1_sram[0]:11 mux_right_track_18/sky130_fd_sc_hd__mux2_1_0_X[0]:5 3.446703e-05
31 mux_tree_tapbuf_size3_1_sram[0]:7 mux_right_track_18/sky130_fd_sc_hd__mux2_1_0_X[0]:5 3.210713e-05
32 mux_tree_tapbuf_size3_1_sram[0]:8 mux_right_track_18/sky130_fd_sc_hd__mux2_1_0_X[0]:4 3.210713e-05

*RES
0 mem_right_track_18\/sky130_fd_sc_hd__dfxbp_1_0_:Q mux_tree_tapbuf_size3_1_sram[0]:20 0.152
1 mux_tree_tapbuf_size3_1_sram[0]:14 mux_tree_tapbuf_size3_1_sram[0]:13 0.001174107
2 mux_tree_tapbuf_size3_1_sram[0]:14 mux_tree_tapbuf_size3_1_sram[0]:11 0.008763393
3 mux_tree_tapbuf_size3_1_sram[0]:15 mux_tree_tapbuf_size3_1_sram[0]:14 0.00341
4 mux_tree_tapbuf_size3_1_sram[0]:17 mux_tree_tapbuf_size3_1_sram[0]:16 0.00341
5 mux_tree_tapbuf_size3_1_sram[0]:16 mux_tree_tapbuf_size3_1_sram[0]:15 0.002880316
6 mux_tree_tapbuf_size3_1_sram[0]:19 mux_tree_tapbuf_size3_1_sram[0]:18 0.0045
7 mux_tree_tapbuf_size3_1_sram[0]:18 mux_tree_tapbuf_size3_1_sram[0]:17 0.003551339
8 mux_tree_tapbuf_size3_1_sram[0]:20 mux_tree_tapbuf_size3_1_sram[0]:19 0.0001657609
9 mux_tree_tapbuf_size3_1_sram[0]:10 mux_tree_tapbuf_size3_1_sram[0]:9 0.002383929
10 mux_tree_tapbuf_size3_1_sram[0]:11 mux_tree_tapbuf_size3_1_sram[0]:10 0.0045
11 mux_tree_tapbuf_size3_1_sram[0]:4 mem_right_track_18\/sky130_fd_sc_hd__dfxbp_1_1_:D 0.152
12 mux_tree_tapbuf_size3_1_sram[0]:12 mux_right_track_18\/mux_l1_in_1_:S 0.152
13 mux_tree_tapbuf_size3_1_sram[0]:13 mux_tree_tapbuf_size3_1_sram[0]:12 0.0045
14 mux_tree_tapbuf_size3_1_sram[0]:5 mux_right_track_18\/mux_l1_in_0_:S 0.152
15 mux_tree_tapbuf_size3_1_sram[0]:6 mux_tree_tapbuf_size3_1_sram[0]:5 0.0001752718
16 mux_tree_tapbuf_size3_1_sram[0]:7 mux_tree_tapbuf_size3_1_sram[0]:6 0.0045
17 mux_tree_tapbuf_size3_1_sram[0]:9 mux_tree_tapbuf_size3_1_sram[0]:8 0.0045
18 mux_tree_tapbuf_size3_1_sram[0]:9 mux_tree_tapbuf_size3_1_sram[0]:4 0.0001793478
19 mux_tree_tapbuf_size3_1_sram[0]:8 mux_tree_tapbuf_size3_1_sram[0]:7 0.003866072

*END

*D_NET mux_tree_tapbuf_size4_0_sram[2] 0.002830205 //LENGTH 23.085 LUMPCC 0 DR

*CONN
*I mem_top_track_24\/sky130_fd_sc_hd__dfxbp_1_2_:Q O *L 0 *C 37.565 85.680
*I mux_top_track_24\/mux_l3_in_0_:S I *L 0.008363 *C 26.050 85.588
*I mem_top_track_24\/FTB_13__43:A I *L 0.001746 *C 41.400 80.240
*N mux_tree_tapbuf_size4_0_sram[2]:3 *C 41.363 80.240
*N mux_tree_tapbuf_size4_0_sram[2]:4 *C 37.765 80.240
*N mux_tree_tapbuf_size4_0_sram[2]:5 *C 37.720 80.285
*N mux_tree_tapbuf_size4_0_sram[2]:6 *C 26.130 85.465
*N mux_tree_tapbuf_size4_0_sram[2]:7 *C 26.130 85.450
*N mux_tree_tapbuf_size4_0_sram[2]:8 *C 26.130 85.028
*N mux_tree_tapbuf_size4_0_sram[2]:9 *C 26.138 85.000
*N mux_tree_tapbuf_size4_0_sram[2]:10 *C 37.712 85.000
*N mux_tree_tapbuf_size4_0_sram[2]:11 *C 37.720 85.000
*N mux_tree_tapbuf_size4_0_sram[2]:12 *C 37.720 85.635
*N mux_tree_tapbuf_size4_0_sram[2]:13 *C 37.720 85.680
*N mux_tree_tapbuf_size4_0_sram[2]:14 *C 37.565 85.680

*CAP
0 mem_top_track_24\/sky130_fd_sc_hd__dfxbp_1_2_:Q 1e-06
1 mux_top_track_24\/mux_l3_in_0_:S 3.490398e-05
2 mem_top_track_24\/FTB_13__43:A 1e-06
3 mux_tree_tapbuf_size4_0_sram[2]:3 0.0002186343
4 mux_tree_tapbuf_size4_0_sram[2]:4 0.0002186343
5 mux_tree_tapbuf_size4_0_sram[2]:5 0.0002715138
6 mux_tree_tapbuf_size4_0_sram[2]:6 3.490398e-05
7 mux_tree_tapbuf_size4_0_sram[2]:7 5.433735e-05
8 mux_tree_tapbuf_size4_0_sram[2]:8 5.433735e-05
9 mux_tree_tapbuf_size4_0_sram[2]:9 0.0007143966
10 mux_tree_tapbuf_size4_0_sram[2]:10 0.0007143966
11 mux_tree_tapbuf_size4_0_sram[2]:11 0.0003490658
12 mux_tree_tapbuf_size4_0_sram[2]:12 4.579522e-05
13 mux_tree_tapbuf_size4_0_sram[2]:13 5.879794e-05
14 mux_tree_tapbuf_size4_0_sram[2]:14 5.848773e-05

*RES
0 mem_top_track_24\/sky130_fd_sc_hd__dfxbp_1_2_:Q mux_tree_tapbuf_size4_0_sram[2]:14 0.152
1 mux_tree_tapbuf_size4_0_sram[2]:6 mux_top_track_24\/mux_l3_in_0_:S 7.692308e-05
2 mux_tree_tapbuf_size4_0_sram[2]:7 mux_tree_tapbuf_size4_0_sram[2]:6 0.0045
3 mux_tree_tapbuf_size4_0_sram[2]:8 mux_tree_tapbuf_size4_0_sram[2]:7 0.000203125
4 mux_tree_tapbuf_size4_0_sram[2]:9 mux_tree_tapbuf_size4_0_sram[2]:8 0.00341
5 mux_tree_tapbuf_size4_0_sram[2]:11 mux_tree_tapbuf_size4_0_sram[2]:10 0.00341
6 mux_tree_tapbuf_size4_0_sram[2]:11 mux_tree_tapbuf_size4_0_sram[2]:5 0.004209822
7 mux_tree_tapbuf_size4_0_sram[2]:10 mux_tree_tapbuf_size4_0_sram[2]:9 0.001813416
8 mux_tree_tapbuf_size4_0_sram[2]:13 mux_tree_tapbuf_size4_0_sram[2]:12 0.0045
9 mux_tree_tapbuf_size4_0_sram[2]:12 mux_tree_tapbuf_size4_0_sram[2]:11 0.0005669643
10 mux_tree_tapbuf_size4_0_sram[2]:14 mux_tree_tapbuf_size4_0_sram[2]:13 8.423914e-05
11 mux_tree_tapbuf_size4_0_sram[2]:4 mux_tree_tapbuf_size4_0_sram[2]:3 0.003212054
12 mux_tree_tapbuf_size4_0_sram[2]:5 mux_tree_tapbuf_size4_0_sram[2]:4 0.0045
13 mux_tree_tapbuf_size4_0_sram[2]:3 mem_top_track_24\/FTB_13__43:A 0.152

*END

*D_NET mux_tree_tapbuf_size4_4_sram[2] 0.001568314 //LENGTH 11.930 LUMPCC 0.0002877493 DR

*CONN
*I mem_right_track_12\/sky130_fd_sc_hd__dfxbp_1_2_:Q O *L 0 *C 64.245 91.460
*I mux_right_track_12\/mux_l3_in_0_:S I *L 0.00357 *C 63.380 89.080
*I mem_right_track_12\/FTB_17__47:A I *L 0.001746 *C 68.080 93.840
*N mux_tree_tapbuf_size4_4_sram[2]:3 *C 68.058 93.868
*N mux_tree_tapbuf_size4_4_sram[2]:4 *C 68.045 94.180
*N mux_tree_tapbuf_size4_4_sram[2]:5 *C 64.445 94.180
*N mux_tree_tapbuf_size4_4_sram[2]:6 *C 64.400 94.135
*N mux_tree_tapbuf_size4_4_sram[2]:7 *C 64.400 91.460
*N mux_tree_tapbuf_size4_4_sram[2]:8 *C 63.418 89.080
*N mux_tree_tapbuf_size4_4_sram[2]:9 *C 63.895 89.080
*N mux_tree_tapbuf_size4_4_sram[2]:10 *C 63.940 89.125
*N mux_tree_tapbuf_size4_4_sram[2]:11 *C 63.940 91.460
*N mux_tree_tapbuf_size4_4_sram[2]:12 *C 63.940 91.460
*N mux_tree_tapbuf_size4_4_sram[2]:13 *C 64.245 91.460

*CAP
0 mem_right_track_12\/sky130_fd_sc_hd__dfxbp_1_2_:Q 1e-06
1 mux_right_track_12\/mux_l3_in_0_:S 1e-06
2 mem_right_track_12\/FTB_17__47:A 1e-06
3 mux_tree_tapbuf_size4_4_sram[2]:3 3.081738e-05
4 mux_tree_tapbuf_size4_4_sram[2]:4 0.0001921044
5 mux_tree_tapbuf_size4_4_sram[2]:5 0.000161287
6 mux_tree_tapbuf_size4_4_sram[2]:6 0.00016619
7 mux_tree_tapbuf_size4_4_sram[2]:7 0.0001975739
8 mux_tree_tapbuf_size4_4_sram[2]:8 5.787783e-05
9 mux_tree_tapbuf_size4_4_sram[2]:9 5.787783e-05
10 mux_tree_tapbuf_size4_4_sram[2]:10 0.0001435066
11 mux_tree_tapbuf_size4_4_sram[2]:11 0.0001748904
12 mux_tree_tapbuf_size4_4_sram[2]:12 4.925315e-05
13 mux_tree_tapbuf_size4_4_sram[2]:13 4.618685e-05
14 mux_tree_tapbuf_size4_4_sram[2]:5 chany_top_in[12]:25 0.0001438747
15 mux_tree_tapbuf_size4_4_sram[2]:4 chany_top_in[12]:26 0.0001438747

*RES
0 mem_right_track_12\/sky130_fd_sc_hd__dfxbp_1_2_:Q mux_tree_tapbuf_size4_4_sram[2]:13 0.152
1 mux_tree_tapbuf_size4_4_sram[2]:5 mux_tree_tapbuf_size4_4_sram[2]:4 0.003214286
2 mux_tree_tapbuf_size4_4_sram[2]:6 mux_tree_tapbuf_size4_4_sram[2]:5 0.0045
3 mux_tree_tapbuf_size4_4_sram[2]:3 mem_right_track_12\/FTB_17__47:A 0.152
4 mux_tree_tapbuf_size4_4_sram[2]:9 mux_tree_tapbuf_size4_4_sram[2]:8 0.0004263393
5 mux_tree_tapbuf_size4_4_sram[2]:10 mux_tree_tapbuf_size4_4_sram[2]:9 0.0045
6 mux_tree_tapbuf_size4_4_sram[2]:8 mux_right_track_12\/mux_l3_in_0_:S 0.152
7 mux_tree_tapbuf_size4_4_sram[2]:12 mux_tree_tapbuf_size4_4_sram[2]:11 0.0045
8 mux_tree_tapbuf_size4_4_sram[2]:11 mux_tree_tapbuf_size4_4_sram[2]:10 0.002084821
9 mux_tree_tapbuf_size4_4_sram[2]:11 mux_tree_tapbuf_size4_4_sram[2]:7 0.0004107143
10 mux_tree_tapbuf_size4_4_sram[2]:13 mux_tree_tapbuf_size4_4_sram[2]:12 0.0001657609
11 mux_tree_tapbuf_size4_4_sram[2]:4 mux_tree_tapbuf_size4_4_sram[2]:3 0.0002111487
12 mux_tree_tapbuf_size4_4_sram[2]:7 mux_tree_tapbuf_size4_4_sram[2]:6 0.002388393

*END

*D_NET mux_tree_tapbuf_size4_mem_3_ccff_tail[0] 0.0006712117 //LENGTH 4.220 LUMPCC 0.0002456348 DR

*CONN
*I mem_right_track_10\/FTB_16__46:X O *L 0 *C 44.395 86.360
*I mem_right_track_12\/sky130_fd_sc_hd__dfxbp_1_0_:D I *L 0.001695 *C 46.175 88.060
*N mux_tree_tapbuf_size4_mem_3_ccff_tail[0]:2 *C 46.175 88.060
*N mux_tree_tapbuf_size4_mem_3_ccff_tail[0]:3 *C 46.000 88.060
*N mux_tree_tapbuf_size4_mem_3_ccff_tail[0]:4 *C 46.000 88.015
*N mux_tree_tapbuf_size4_mem_3_ccff_tail[0]:5 *C 46.000 86.405
*N mux_tree_tapbuf_size4_mem_3_ccff_tail[0]:6 *C 45.955 86.360
*N mux_tree_tapbuf_size4_mem_3_ccff_tail[0]:7 *C 44.433 86.360

*CAP
0 mem_right_track_10\/FTB_16__46:X 1e-06
1 mem_right_track_12\/sky130_fd_sc_hd__dfxbp_1_0_:D 1e-06
2 mux_tree_tapbuf_size4_mem_3_ccff_tail[0]:2 5.031446e-05
3 mux_tree_tapbuf_size4_mem_3_ccff_tail[0]:3 5.50246e-05
4 mux_tree_tapbuf_size4_mem_3_ccff_tail[0]:4 7.748442e-05
5 mux_tree_tapbuf_size4_mem_3_ccff_tail[0]:5 7.748442e-05
6 mux_tree_tapbuf_size4_mem_3_ccff_tail[0]:6 8.163451e-05
7 mux_tree_tapbuf_size4_mem_3_ccff_tail[0]:7 8.163451e-05
8 mux_tree_tapbuf_size4_mem_3_ccff_tail[0]:4 chany_bottom_in[14]:13 5.311198e-05
9 mux_tree_tapbuf_size4_mem_3_ccff_tail[0]:5 chany_bottom_in[14]:14 5.311198e-05
10 mux_tree_tapbuf_size4_mem_3_ccff_tail[0]:6 optlc_net_184:31 6.970539e-05
11 mux_tree_tapbuf_size4_mem_3_ccff_tail[0]:7 optlc_net_184:32 6.970539e-05

*RES
0 mem_right_track_10\/FTB_16__46:X mux_tree_tapbuf_size4_mem_3_ccff_tail[0]:7 0.152
1 mux_tree_tapbuf_size4_mem_3_ccff_tail[0]:2 mem_right_track_12\/sky130_fd_sc_hd__dfxbp_1_0_:D 0.152
2 mux_tree_tapbuf_size4_mem_3_ccff_tail[0]:3 mux_tree_tapbuf_size4_mem_3_ccff_tail[0]:2 9.51087e-05
3 mux_tree_tapbuf_size4_mem_3_ccff_tail[0]:4 mux_tree_tapbuf_size4_mem_3_ccff_tail[0]:3 0.0045
4 mux_tree_tapbuf_size4_mem_3_ccff_tail[0]:6 mux_tree_tapbuf_size4_mem_3_ccff_tail[0]:5 0.0045
5 mux_tree_tapbuf_size4_mem_3_ccff_tail[0]:5 mux_tree_tapbuf_size4_mem_3_ccff_tail[0]:4 0.0014375
6 mux_tree_tapbuf_size4_mem_3_ccff_tail[0]:7 mux_tree_tapbuf_size4_mem_3_ccff_tail[0]:6 0.001359375

*END

*D_NET mux_tree_tapbuf_size5_1_sram[2] 0.001371837 //LENGTH 11.180 LUMPCC 0 DR

*CONN
*I mem_top_track_16\/sky130_fd_sc_hd__dfxbp_1_2_:Q O *L 0 *C 29.085 75.480
*I mux_top_track_16\/mux_l3_in_0_:S I *L 0.008363 *C 25.635 72.343
*I mem_top_track_16\/FTB_9__39:A I *L 0.001746 *C 24.380 77.520
*N mux_tree_tapbuf_size5_1_sram[2]:3 *C 24.418 77.520
*N mux_tree_tapbuf_size5_1_sram[2]:4 *C 25.715 77.520
*N mux_tree_tapbuf_size5_1_sram[2]:5 *C 25.760 77.475
*N mux_tree_tapbuf_size5_1_sram[2]:6 *C 25.760 72.295
*N mux_tree_tapbuf_size5_1_sram[2]:7 *C 25.760 72.340
*N mux_tree_tapbuf_size5_1_sram[2]:8 *C 25.760 75.480
*N mux_tree_tapbuf_size5_1_sram[2]:9 *C 25.805 75.480
*N mux_tree_tapbuf_size5_1_sram[2]:10 *C 29.048 75.480

*CAP
0 mem_top_track_16\/sky130_fd_sc_hd__dfxbp_1_2_:Q 1e-06
1 mux_top_track_16\/mux_l3_in_0_:S 3.360166e-05
2 mem_top_track_16\/FTB_9__39:A 1e-06
3 mux_tree_tapbuf_size5_1_sram[2]:3 8.730083e-05
4 mux_tree_tapbuf_size5_1_sram[2]:4 8.730083e-05
5 mux_tree_tapbuf_size5_1_sram[2]:5 0.0001173881
6 mux_tree_tapbuf_size5_1_sram[2]:6 3.360166e-05
7 mux_tree_tapbuf_size5_1_sram[2]:7 0.0001785995
8 mux_tree_tapbuf_size5_1_sram[2]:8 0.0003273556
9 mux_tree_tapbuf_size5_1_sram[2]:9 0.0002523445
10 mux_tree_tapbuf_size5_1_sram[2]:10 0.0002523445

*RES
0 mem_top_track_16\/sky130_fd_sc_hd__dfxbp_1_2_:Q mux_tree_tapbuf_size5_1_sram[2]:10 0.152
1 mux_tree_tapbuf_size5_1_sram[2]:10 mux_tree_tapbuf_size5_1_sram[2]:9 0.002895089
2 mux_tree_tapbuf_size5_1_sram[2]:9 mux_tree_tapbuf_size5_1_sram[2]:8 0.0045
3 mux_tree_tapbuf_size5_1_sram[2]:8 mux_tree_tapbuf_size5_1_sram[2]:7 0.002803572
4 mux_tree_tapbuf_size5_1_sram[2]:8 mux_tree_tapbuf_size5_1_sram[2]:5 0.00178125
5 mux_tree_tapbuf_size5_1_sram[2]:4 mux_tree_tapbuf_size5_1_sram[2]:3 0.001158482
6 mux_tree_tapbuf_size5_1_sram[2]:5 mux_tree_tapbuf_size5_1_sram[2]:4 0.0045
7 mux_tree_tapbuf_size5_1_sram[2]:3 mem_top_track_16\/FTB_9__39:A 0.152
8 mux_tree_tapbuf_size5_1_sram[2]:6 mux_top_track_16\/mux_l3_in_0_:S 7.692308e-05
9 mux_tree_tapbuf_size5_1_sram[2]:7 mux_tree_tapbuf_size5_1_sram[2]:6 0.0045

*END

*D_NET mux_tree_tapbuf_size5_4_sram[1] 0.004577769 //LENGTH 34.620 LUMPCC 0.0004428624 DR

*CONN
*I mem_bottom_track_25\/sky130_fd_sc_hd__dfxbp_1_1_:Q O *L 0 *C 58.265 55.760
*I mux_bottom_track_25\/mux_l2_in_0_:S I *L 0.00357 *C 60.820 51.000
*I mem_bottom_track_25\/sky130_fd_sc_hd__dfxbp_1_2_:D I *L 0.001695 *C 42.495 47.940
*I mux_bottom_track_25\/mux_l2_in_1_:S I *L 0.00357 *C 62.200 45.560
*N mux_tree_tapbuf_size5_4_sram[1]:4 *C 62.163 45.560
*N mux_tree_tapbuf_size5_4_sram[1]:5 *C 60.305 45.560
*N mux_tree_tapbuf_size5_4_sram[1]:6 *C 60.260 45.605
*N mux_tree_tapbuf_size5_4_sram[1]:7 *C 42.523 47.963
*N mux_tree_tapbuf_size5_4_sram[1]:8 *C 42.780 47.975
*N mux_tree_tapbuf_size5_4_sram[1]:9 *C 42.780 48.280
*N mux_tree_tapbuf_size5_4_sram[1]:10 *C 60.215 48.280
*N mux_tree_tapbuf_size5_4_sram[1]:11 *C 60.260 48.280
*N mux_tree_tapbuf_size5_4_sram[1]:12 *C 60.783 51.000
*N mux_tree_tapbuf_size5_4_sram[1]:13 *C 60.305 51.000