*SPEF "1481-1998"
*DESIGN "sb_0__0_"
*DATE "Mon Oct 26 23:03:32 2020"
*
*
*
*
*DIVIDER /
*DELIMITER :
*T_UNIT 1 NS
*C_UNIT 1 PF
*R_UNIT 1 KOHM
*L_UNIT 1 HENRY

// XY_UNIT 1 UM
// PARASITIC_TECH nominal at 25.000 degree

*PORTS
prog_clk[0] I *C 14.720 102.680
chany_top_in[0] I *C 67.620 102.680
chany_top_in[1] I *C 62.100 102.680
chany_top_in[2] I *C 70.380 102.680
chany_top_in[3] I *C 45.540 102.680
chany_top_in[4] I *C 43.700 102.680
chany_top_in[5] I *C 28.980 102.680
chany_top_in[6] I *C 69.460 102.680
chany_top_in[7] I *C 68.540 102.680
chany_top_in[8] I *C 63.020 102.680
chany_top_in[9] I *C 51.980 102.680
chany_top_in[10] I *C 50.140 102.680
chany_top_in[11] I *C 41.860 102.680
chany_top_in[12] I *C 72.220 102.680
chany_top_in[13] I *C 20.240 102.680
chany_top_in[14] I *C 29.440 102.680
chany_top_in[15] I *C 49.680 102.680
chany_top_in[16] I *C 58.880 102.680
chany_top_in[17] I *C 14.720 102.680
chany_top_in[18] I *C 44.160 102.680
chany_top_in[19] I *C 47.380 102.680
top_left_grid_pin_1_[0] I *C 2.300 102.680
chanx_right_in[0] I *C 112.470 46.240
chanx_right_in[1] I *C 112.470 16.320
chanx_right_in[2] I *C 112.470 12.240
chanx_right_in[3] I *C 112.470 8.160
chanx_right_in[4] I *C 112.470 13.600
chanx_right_in[5] I *C 112.470 9.520
chanx_right_in[6] I *C 112.470 31.280
chanx_right_in[7] I *C 112.470 47.600
chanx_right_in[8] I *C 112.470 14.960
chanx_right_in[9] I *C 112.470 72.080
chanx_right_in[10] I *C 112.470 25.840
chanx_right_in[11] I *C 112.470 29.920
chanx_right_in[12] I *C 112.470 19.040
chanx_right_in[13] I *C 112.470 44.880
chanx_right_in[14] I *C 112.470 17.680
chanx_right_in[15] I *C 112.470 42.160
chanx_right_in[16] I *C 112.470 4.080
chanx_right_in[17] I *C 112.470 63.920
chanx_right_in[18] I *C 112.470 50.320
chanx_right_in[19] I *C 112.470 58.480
right_top_grid_pin_42_[0] I *C 109.940 75.480
right_top_grid_pin_43_[0] I *C 83.950 99.280
right_top_grid_pin_44_[0] I *C 110.860 75.480
right_top_grid_pin_45_[0] I *C 109.020 75.480
right_top_grid_pin_46_[0] I *C 83.950 91.800
right_top_grid_pin_47_[0] I *C 83.950 90.440
right_top_grid_pin_48_[0] I *C 107.180 75.480
right_top_grid_pin_49_[0] I *C 108.100 75.480
right_bottom_grid_pin_1_[0] I *C 109.940 0.680
ccff_head[0] I *C 110.860 0.680
chany_top_out[0] O *C 42.780 102.680
chany_top_out[1] O *C 25.760 102.680
chany_top_out[2] O *C 71.300 102.680
chany_top_out[3] O *C 49.220 102.680
chany_top_out[4] O *C 36.340 102.680
chany_top_out[5] O *C 44.620 102.680
chany_top_out[6] O *C 5.520 102.680
chany_top_out[7] O *C 69.000 102.680
chany_top_out[8] O *C 22.080 102.680
chany_top_out[9] O *C 9.200 102.680
chany_top_out[10] O *C 46.460 102.680
chany_top_out[11] O *C 51.060 102.680
chany_top_out[12] O *C 7.360 102.680
chany_top_out[13] O *C 23.920 102.680
chany_top_out[14] O *C 7.360 102.680
chany_top_out[15] O *C 46.000 102.680
chany_top_out[16] O *C 48.300 102.680
chany_top_out[17] O *C 52.900 102.680
chany_top_out[18] O *C 47.840 102.680
chany_top_out[19] O *C 25.760 102.680
chanx_right_out[0] O *C 112.470 59.840
chanx_right_out[1] O *C 112.470 66.640
chanx_right_out[2] O *C 112.470 6.800
chanx_right_out[3] O *C 112.470 68.000
chanx_right_out[4] O *C 112.470 35.360
chanx_right_out[5] O *C 112.470 57.120
chanx_right_out[6] O *C 112.470 28.560
chanx_right_out[7] O *C 112.470 51.680
chanx_right_out[8] O *C 112.470 34.000
chanx_right_out[9] O *C 112.470 40.800
chanx_right_out[10] O *C 112.470 24.480
chanx_right_out[11] O *C 112.470 55.760
chanx_right_out[12] O *C 112.470 69.360
chanx_right_out[13] O *C 112.470 61.200
chanx_right_out[14] O *C 112.470 23.120
chanx_right_out[15] O *C 112.470 39.440
chanx_right_out[16] O *C 112.470 36.720
chanx_right_out[17] O *C 112.470 62.560
chanx_right_out[18] O *C 112.470 20.400
chanx_right_out[19] O *C 112.470 53.040
ccff_tail[0] O *C 0.690 68.680
VDD I *C 56.580 51.680
VSS I *C 56.580 51.680

*D_NET chany_top_in[13] 0.01705342 //LENGTH 169.625 LUMPCC 0.003089438 DR

*CONN
*P chany_top_in[13] I *L 0.29796 *C 20.240 102.150
*I ropt_mt_inst_748:A I *L 0.001767 *C 106.260 23.120
*N chany_top_in[13]:2 *C 19.840 87.040
*N chany_top_in[13]:3 *C 106.223 23.120
*N chany_top_in[13]:4 *C 104.925 23.120
*N chany_top_in[13]:5 *C 104.880 23.165
*N chany_top_in[13]:6 *C 104.880 28.855
*N chany_top_in[13]:7 *C 104.835 28.900
*N chany_top_in[13]:8 *C 100.280 28.900
*N chany_top_in[13]:9 *C 100.360 29.240
*N chany_top_in[13]:10 *C 100.290 29.195
*N chany_top_in[13]:11 *C 100.280 28.605
*N chany_top_in[13]:12 *C 100.235 28.560
*N chany_top_in[13]:13 *C 99.360 28.560
*N chany_top_in[13]:14 *C 99.360 28.900
*N chany_top_in[13]:15 *C 70.080 28.900
*N chany_top_in[13]:16 *C 20.285 28.900
*N chany_top_in[13]:17 *C 20.240 28.945
*N chany_top_in[13]:18 *C 20.240 78.740
*N chany_top_in[13]:19 *C 20.240 86.983
*N chany_top_in[13]:20 *C 20.240 87.040
*N chany_top_in[13]:21 *C 20.240 87.047

*CAP
0 chany_top_in[13] 0.0006795235
1 ropt_mt_inst_748:A 1e-06
2 chany_top_in[13]:2 5.245576e-05
3 chany_top_in[13]:3 8.921875e-05
4 chany_top_in[13]:4 8.921875e-05
5 chany_top_in[13]:5 0.0002487939
6 chany_top_in[13]:6 0.0002487939
7 chany_top_in[13]:7 0.0002734233
8 chany_top_in[13]:8 0.0002975503
9 chany_top_in[13]:9 5.130829e-05
10 chany_top_in[13]:10 6.107725e-05
11 chany_top_in[13]:11 6.107725e-05
12 chany_top_in[13]:12 6.22564e-05
13 chany_top_in[13]:13 8.202481e-05
14 chany_top_in[13]:14 0.001589375
15 chany_top_in[13]:15 0.004054883
16 chany_top_in[13]:16 0.002485276
17 chany_top_in[13]:17 0.001208578
18 chany_top_in[13]:18 0.001402371
19 chany_top_in[13]:19 0.0001937932
20 chany_top_in[13]:20 5.245576e-05
21 chany_top_in[13]:21 0.0006795235
22 chany_top_in[13] chany_top_in[17] 2.562183e-05
23 chany_top_in[13] chany_top_in[17]:11 5.509636e-06
24 chany_top_in[13]:5 chany_top_in[17]:4 4.461578e-05
25 chany_top_in[13]:6 chany_top_in[17]:5 4.461578e-05
26 chany_top_in[13]:17 chany_top_in[17]:9 0.0004689837
27 chany_top_in[13]:17 chany_top_in[17]:10 3.223612e-05
28 chany_top_in[13]:19 chany_top_in[17]:11 8.881444e-05
29 chany_top_in[13]:21 chany_top_in[17]:14 2.562183e-05
30 chany_top_in[13]:21 chany_top_in[17]:10 5.509636e-06
31 chany_top_in[13]:18 chany_top_in[17]:11 3.223612e-05
32 chany_top_in[13]:18 chany_top_in[17]:10 0.0005577982
33 chany_top_in[13]:17 chanx_right_in[10]:10 0.0007001939
34 chany_top_in[13]:17 chanx_right_in[10]:9 4.77273e-05
35 chany_top_in[13]:19 chanx_right_in[10]:8 0.0001310165
36 chany_top_in[13]:18 chanx_right_in[10]:8 4.77273e-05
37 chany_top_in[13]:18 chanx_right_in[10]:9 0.0008312103

*RES
0 chany_top_in[13] chany_top_in[13]:21 0.002366058
1 chany_top_in[13]:3 ropt_mt_inst_748:A 0.152
2 chany_top_in[13]:4 chany_top_in[13]:3 0.001158482
3 chany_top_in[13]:5 chany_top_in[13]:4 0.0045
4 chany_top_in[13]:7 chany_top_in[13]:6 0.0045
5 chany_top_in[13]:6 chany_top_in[13]:5 0.005080357
6 chany_top_in[13]:9 chany_top_in[13]:8 0.0003035715
7 chany_top_in[13]:10 chany_top_in[13]:9 0.0045
8 chany_top_in[13]:12 chany_top_in[13]:11 0.0045
9 chany_top_in[13]:11 chany_top_in[13]:10 0.0005267857
10 chany_top_in[13]:16 chany_top_in[13]:15 0.04445983
11 chany_top_in[13]:17 chany_top_in[13]:16 0.0045
12 chany_top_in[13]:19 chany_top_in[13]:18 0.007359375
13 chany_top_in[13]:20 chany_top_in[13]:19 0.00341
14 chany_top_in[13]:20 chany_top_in[13]:2 5.69697e-05
15 chany_top_in[13]:21 chany_top_in[13]:20 0.00341
16 chany_top_in[13]:14 chany_top_in[13]:13 0.0003035715
17 chany_top_in[13]:13 chany_top_in[13]:12 0.00078125
18 chany_top_in[13]:8 chany_top_in[13]:7 0.004066965
19 chany_top_in[13]:15 chany_top_in[13]:14 0.02614286
20 chany_top_in[13]:18 chany_top_in[13]:17 0.04445982

*END

*D_NET chanx_right_in[14] 0.01836244 //LENGTH 177.645 LUMPCC 0.00316782 DR

*CONN
*P chanx_right_in[14] I *L 0.29796 *C 111.930 17.680
*I ropt_mt_inst_735:A I *L 0.001767 *C 21.160 99.280
*N chanx_right_in[14]:2 *C 21.198 99.280
*N chanx_right_in[14]:3 *C 25.255 99.280
*N chanx_right_in[14]:4 *C 25.300 99.235
*N chanx_right_in[14]:5 *C 25.300 91.800
*N chanx_right_in[14]:6 *C 25.760 91.800
*N chanx_right_in[14]:7 *C 25.760 88.105
*N chanx_right_in[14]:8 *C 25.805 88.060
*N chanx_right_in[14]:9 *C 31.235 88.060
*N chanx_right_in[14]:10 *C 31.280 88.015
*N chanx_right_in[14]:11 *C 31.280 38.805
*N chanx_right_in[14]:12 *C 31.325 38.760
*N chanx_right_in[14]:13 *C 45.035 38.760
*N chanx_right_in[14]:14 *C 45.080 38.805
*N chanx_right_in[14]:15 *C 45.080 39.380
*N chanx_right_in[14]:16 *C 45.080 39.425
*N chanx_right_in[14]:17 *C 45.080 39.780
*N chanx_right_in[14]:18 *C 47.380 39.780
*N chanx_right_in[14]:19 *C 47.380 39.440
*N chanx_right_in[14]:20 *C 47.380 39.395
*N chanx_right_in[14]:21 *C 47.380 17.738
*N chanx_right_in[14]:22 *C 47.388 17.680
*N chanx_right_in[14]:23 *C 97.215 17.680

*CAP
0 chanx_right_in[14] 0.000353857
1 ropt_mt_inst_735:A 1e-06
2 chanx_right_in[14]:2 0.0002418215
3 chanx_right_in[14]:3 0.0002418215
4 chanx_right_in[14]:4 0.0004003538
5 chanx_right_in[14]:5 0.0004278546
6 chanx_right_in[14]:6 0.0002217493
7 chanx_right_in[14]:7 0.0001942485
8 chanx_right_in[14]:8 0.0003109014
9 chanx_right_in[14]:9 0.0003109014
10 chanx_right_in[14]:10 0.002082408
11 chanx_right_in[14]:11 0.002082408
12 chanx_right_in[14]:12 0.0007802031
13 chanx_right_in[14]:13 0.0007802031
14 chanx_right_in[14]:14 3.882679e-05
15 chanx_right_in[14]:15 3.882679e-05
16 chanx_right_in[14]:16 4.509201e-05
17 chanx_right_in[14]:17 0.0001571198
18 chanx_right_in[14]:18 0.0001606703
19 chanx_right_in[14]:19 5.520835e-05
20 chanx_right_in[14]:20 0.001001506
21 chanx_right_in[14]:21 0.001001506
22 chanx_right_in[14]:22 0.001956138
23 chanx_right_in[14]:23 0.002309995
24 chanx_right_in[14]:11 chanx_right_in[0]:5 0.000274747
25 chanx_right_in[14]:10 chanx_right_in[0]:4 0.000274747
26 chanx_right_in[14] chanx_right_in[12] 0.0001077329
27 chanx_right_in[14] chanx_right_in[12]:36 0.0001526175
28 chanx_right_in[14]:22 chanx_right_in[12]:35 8.299771e-05
29 chanx_right_in[14]:23 chanx_right_in[12]:35 0.0001526175
30 chanx_right_in[14]:23 chanx_right_in[12]:36 8.299771e-05
31 chanx_right_in[14]:23 chanx_right_in[12]:37 0.0001077329
32 chanx_right_in[14] chanx_right_in[1] 0.0003725494
33 chanx_right_in[14]:22 chanx_right_in[1]:6 0.0005932653
34 chanx_right_in[14]:23 chanx_right_in[1] 0.0005932653
35 chanx_right_in[14]:23 chanx_right_in[1]:6 0.0003725494

*RES
0 chanx_right_in[14] chanx_right_in[14]:23 0.00230535
1 chanx_right_in[14]:13 chanx_right_in[14]:12 0.01224107
2 chanx_right_in[14]:14 chanx_right_in[14]:13 0.0045
3 chanx_right_in[14]:12 chanx_right_in[14]:11 0.0045
4 chanx_right_in[14]:11 chanx_right_in[14]:10 0.0439375
5 chanx_right_in[14]:9 chanx_right_in[14]:8 0.004848214
6 chanx_right_in[14]:10 chanx_right_in[14]:9 0.0045
7 chanx_right_in[14]:8 chanx_right_in[14]:7 0.0045
8 chanx_right_in[14]:7 chanx_right_in[14]:6 0.003299107
9 chanx_right_in[14]:3 chanx_right_in[14]:2 0.003622768
10 chanx_right_in[14]:4 chanx_right_in[14]:3 0.0045
11 chanx_right_in[14]:2 ropt_mt_inst_735:A 0.152
12 chanx_right_in[14]:16 chanx_right_in[14]:15 0.0045
13 chanx_right_in[14]:15 chanx_right_in[14]:14 0.0005133929
14 chanx_right_in[14]:19 chanx_right_in[14]:18 0.0003035715
15 chanx_right_in[14]:20 chanx_right_in[14]:19 0.0045
16 chanx_right_in[14]:21 chanx_right_in[14]:20 0.01933706
17 chanx_right_in[14]:22 chanx_right_in[14]:21 0.00341
18 chanx_right_in[14]:17 chanx_right_in[14]:16 0.0003169643
19 chanx_right_in[14]:18 chanx_right_in[14]:17 0.002053572
20 chanx_right_in[14]:5 chanx_right_in[14]:4 0.006638392
21 chanx_right_in[14]:6 chanx_right_in[14]:5 0.0004107143
22 chanx_right_in[14]:23 chanx_right_in[14]:22 0.007806308

*END

*D_NET chanx_right_in[17] 0.01147505 //LENGTH 80.780 LUMPCC 0.003678826 DR

*CONN
*P chanx_right_in[17] I *L 0.29796 *C 111.930 63.920
*I BUFT_RR_62:A I *L 0.001776 *C 54.280 82.960
*N chanx_right_in[17]:2 *C 54.318 82.960
*N chanx_right_in[17]:3 *C 54.695 82.960
*N chanx_right_in[17]:4 *C 54.740 82.915
*N chanx_right_in[17]:5 *C 54.740 79.618
*N chanx_right_in[17]:6 *C 54.748 79.560
*N chanx_right_in[17]:7 *C 71.293 79.560
*N chanx_right_in[17]:8 *C 71.300 79.560
*N chanx_right_in[17]:9 *C 71.300 79.900
*N chanx_right_in[17]:10 *C 71.345 79.900
*N chanx_right_in[17]:11 *C 82.295 79.900
*N chanx_right_in[17]:12 *C 82.340 79.855
*N chanx_right_in[17]:13 *C 82.340 73.498
*N chanx_right_in[17]:14 *C 82.348 73.440
*N chanx_right_in[17]:15 *C 103.493 73.440
*N chanx_right_in[17]:16 *C 103.500 73.383
*N chanx_right_in[17]:17 *C 103.500 72.465
*N chanx_right_in[17]:18 *C 103.545 72.420
*N chanx_right_in[17]:19 *C 107.640 72.420
*N chanx_right_in[17]:20 *C 107.640 72.080
*N chanx_right_in[17]:21 *C 109.435 72.080
*N chanx_right_in[17]:22 *C 109.480 72.035
*N chanx_right_in[17]:23 *C 109.480 63.978
*N chanx_right_in[17]:24 *C 109.488 63.920

*CAP
0 chanx_right_in[17] 0.0001708006
1 BUFT_RR_62:A 1e-06
2 chanx_right_in[17]:2 4.367675e-05
3 chanx_right_in[17]:3 4.367675e-05
4 chanx_right_in[17]:4 0.0002021376
5 chanx_right_in[17]:5 0.0002021376
6 chanx_right_in[17]:6 0.0008902135
7 chanx_right_in[17]:7 0.0008902135
8 chanx_right_in[17]:8 5.797511e-05
9 chanx_right_in[17]:9 5.388618e-05
10 chanx_right_in[17]:10 0.0006340595
11 chanx_right_in[17]:11 0.0006340595
12 chanx_right_in[17]:12 0.0004996861
13 chanx_right_in[17]:13 0.0004996861
14 chanx_right_in[17]:14 0.0004350101
15 chanx_right_in[17]:15 0.0004350101
16 chanx_right_in[17]:16 7.090704e-05
17 chanx_right_in[17]:17 7.090704e-05
18 chanx_right_in[17]:18 0.0002502949
19 chanx_right_in[17]:19 0.0002754644
20 chanx_right_in[17]:20 0.0001027739
21 chanx_right_in[17]:21 7.760436e-05
22 chanx_right_in[17]:22 0.0005421202
23 chanx_right_in[17]:23 0.0005421202
24 chanx_right_in[17]:24 0.0001708006
25 chanx_right_in[17]:23 chany_top_in[16]:5 4.908409e-06
26 chanx_right_in[17]:21 chany_top_in[16]:7 7.70504e-05
27 chanx_right_in[17]:22 chany_top_in[16]:6 4.908409e-06
28 chanx_right_in[17]:18 chany_top_in[16]:8 8.181424e-05
29 chanx_right_in[17]:17 chany_top_in[16]:14 3.9352e-06
30 chanx_right_in[17]:16 chany_top_in[16]:15 3.9352e-06
31 chanx_right_in[17]:15 chany_top_in[16]:16 5.406843e-06
32 chanx_right_in[17]:14 chany_top_in[16]:17 5.406843e-06
33 chanx_right_in[17]:11 chany_top_in[16]:20 7.731679e-06
34 chanx_right_in[17]:10 chany_top_in[16]:21 7.731679e-06
35 chanx_right_in[17]:7 chany_top_in[16]:20 0.0002646359
36 chanx_right_in[17]:6 chany_top_in[16]:21 0.0002646359
37 chanx_right_in[17]:19 chany_top_in[16]:7 8.181424e-05
38 chanx_right_in[17]:20 chany_top_in[16]:8 7.70504e-05
39 chanx_right_in[17]:15 right_top_grid_pin_48_[0]:16 0.0004809521
40 chanx_right_in[17]:15 right_top_grid_pin_48_[0]:20 0.0002288085
41 chanx_right_in[17]:15 right_top_grid_pin_48_[0]:18 0.000190327
42 chanx_right_in[17]:14 right_top_grid_pin_48_[0]:8 0.0004809521
43 chanx_right_in[17]:14 right_top_grid_pin_48_[0]:17 0.000190327
44 chanx_right_in[17]:14 right_top_grid_pin_48_[0]:19 0.0002288085
45 chanx_right_in[17]:17 mux_right_track_2/sky130_fd_sc_hd__mux2_1_4_X[0]:4 1.277552e-07
46 chanx_right_in[17]:16 mux_right_track_2/sky130_fd_sc_hd__mux2_1_4_X[0]:5 1.277552e-07
47 chanx_right_in[17]:15 mux_right_track_2/sky130_fd_sc_hd__mux2_1_4_X[0]:6 0.0004937151
48 chanx_right_in[17]:14 mux_right_track_2/sky130_fd_sc_hd__mux2_1_4_X[0]:7 0.0004937151

*RES
0 chanx_right_in[17] chanx_right_in[17]:24 0.0003826583
1 chanx_right_in[17]:23 chanx_right_in[17]:22 0.007194197
2 chanx_right_in[17]:24 chanx_right_in[17]:23 0.00341
3 chanx_right_in[17]:21 chanx_right_in[17]:20 0.001602679
4 chanx_right_in[17]:22 chanx_right_in[17]:21 0.0045
5 chanx_right_in[17]:18 chanx_right_in[17]:17 0.0045
6 chanx_right_in[17]:17 chanx_right_in[17]:16 0.0008191965
7 chanx_right_in[17]:16 chanx_right_in[17]:15 0.00341
8 chanx_right_in[17]:15 chanx_right_in[17]:14 0.003312716
9 chanx_right_in[17]:13 chanx_right_in[17]:12 0.005676339
10 chanx_right_in[17]:14 chanx_right_in[17]:13 0.00341
11 chanx_right_in[17]:11 chanx_right_in[17]:10 0.009776786
12 chanx_right_in[17]:12 chanx_right_in[17]:11 0.0045
13 chanx_right_in[17]:10 chanx_right_in[17]:9 0.0045
14 chanx_right_in[17]:9 chanx_right_in[17]:8 0.0001634615
15 chanx_right_in[17]:8 chanx_right_in[17]:7 0.00341
16 chanx_right_in[17]:7 chanx_right_in[17]:6 0.00259205
17 chanx_right_in[17]:5 chanx_right_in[17]:4 0.002944197
18 chanx_right_in[17]:6 chanx_right_in[17]:5 0.00341
19 chanx_right_in[17]:3 chanx_right_in[17]:2 0.0003370536
20 chanx_right_in[17]:4 chanx_right_in[17]:3 0.0045
21 chanx_right_in[17]:2 BUFT_RR_62:A 0.152
22 chanx_right_in[17]:19 chanx_right_in[17]:18 0.00365625
23 chanx_right_in[17]:20 chanx_right_in[17]:19 0.0003035715

*END

*D_NET chany_top_in[6] 0.00463058 //LENGTH 39.220 LUMPCC 0 DR

*CONN
*P chany_top_in[6] I *L 0.29796 *C 69.460 102.070
*I mux_right_track_14\/mux_l1_in_0_:A1 I *L 0.00198 *C 69.920 63.580
*N chany_top_in[6]:2 *C 69.920 63.580
*N chany_top_in[6]:3 *C 69.920 63.580
*N chany_top_in[6]:4 *C 69.460 63.580

*CAP
0 chany_top_in[6] 0.002248388
1 mux_right_track_14\/mux_l1_in_0_:A1 1e-06
2 chany_top_in[6]:2 3.533927e-05
3 chany_top_in[6]:3 6.437235e-05
4 chany_top_in[6]:4 0.00228148

*RES
0 chany_top_in[6] chany_top_in[6]:4 0.03436607
1 chany_top_in[6]:2 mux_right_track_14\/mux_l1_in_0_:A1 0.152
2 chany_top_in[6]:3 chany_top_in[6]:2 0.0045
3 chany_top_in[6]:4 chany_top_in[6]:3 0.0004107143

*END

*D_NET chany_top_in[10] 0.01061417 //LENGTH 77.540 LUMPCC 0.00145286 DR

*CONN
*P chany_top_in[10] I *L 0.29796 *C 50.140 102.070
*I mux_right_track_22\/mux_l1_in_0_:A1 I *L 0.00198 *C 95.220 72.420
*N chany_top_in[10]:2 *C 95.220 72.420
*N chany_top_in[10]:3 *C 95.220 72.465
*N chany_top_in[10]:4 *C 95.220 74.415
*N chany_top_in[10]:5 *C 95.175 74.460
*N chany_top_in[10]:6 *C 84.225 74.460
*N chany_top_in[10]:7 *C 84.180 74.505
*N chany_top_in[10]:8 *C 84.180 75.422
*N chany_top_in[10]:9 *C 84.172 75.480
*N chany_top_in[10]:10 *C 73.600 75.480
*N chany_top_in[10]:11 *C 73.600 76.160
*N chany_top_in[10]:12 *C 60.740 76.160
*N chany_top_in[10]:13 *C 60.720 76.168
*N chany_top_in[10]:14 *C 60.720 94.513
*N chany_top_in[10]:15 *C 60.700 94.520
*N chany_top_in[10]:16 *C 50.148 94.520
*N chany_top_in[10]:17 *C 50.140 94.578

*CAP
0 chany_top_in[10] 0.0004802271
1 mux_right_track_22\/mux_l1_in_0_:A1 1e-06
2 chany_top_in[10]:2 3.092721e-05
3 chany_top_in[10]:3 0.0001455775
4 chany_top_in[10]:4 0.0001455775
5 chany_top_in[10]:5 0.0003901831
6 chany_top_in[10]:6 0.0003901831
7 chany_top_in[10]:7 8.759699e-05
8 chany_top_in[10]:8 8.759699e-05
9 chany_top_in[10]:9 0.0008450309
10 chany_top_in[10]:10 0.0009152439
11 chany_top_in[10]:11 0.001034611
12 chany_top_in[10]:12 0.0009643976
13 chany_top_in[10]:13 0.0007801367
14 chany_top_in[10]:14 0.0007801367
15 chany_top_in[10]:15 0.0008013302
16 chany_top_in[10]:16 0.0008013302
17 chany_top_in[10]:17 0.0004802271
18 chany_top_in[10]:5 chany_top_in[16]:16 0.0004333371
19 chany_top_in[10]:6 chany_top_in[16]:17 0.0004333371
20 chany_top_in[10]:12 chany_top_in[16]:21 5.345074e-07
21 chany_top_in[10]:13 chany_top_in[16]:22 0.0002925585
22 chany_top_in[10]:14 chany_top_in[16] 0.0002925585
23 chany_top_in[10]:11 chany_top_in[16]:20 5.345074e-07

*RES
0 chany_top_in[10] chany_top_in[10]:17 0.006689732
1 chany_top_in[10]:2 mux_right_track_22\/mux_l1_in_0_:A1 0.152
2 chany_top_in[10]:3 chany_top_in[10]:2 0.0045
3 chany_top_in[10]:5 chany_top_in[10]:4 0.0045
4 chany_top_in[10]:4 chany_top_in[10]:3 0.001741072
5 chany_top_in[10]:6 chany_top_in[10]:5 0.009776786
6 chany_top_in[10]:7 chany_top_in[10]:6 0.0045
7 chany_top_in[10]:8 chany_top_in[10]:7 0.0008191965
8 chany_top_in[10]:9 chany_top_in[10]:8 0.00341
9 chany_top_in[10]:12 chany_top_in[10]:11 0.002014733
10 chany_top_in[10]:13 chany_top_in[10]:12 0.00341
11 chany_top_in[10]:15 chany_top_in[10]:14 0.00341
12 chany_top_in[10]:14 chany_top_in[10]:13 0.00287405
13 chany_top_in[10]:17 chany_top_in[10]:16 0.00341
14 chany_top_in[10]:16 chany_top_in[10]:15 0.001653225
15 chany_top_in[10]:11 chany_top_in[10]:10 0.0001065333
16 chany_top_in[10]:10 chany_top_in[10]:9 0.001656358

*END

*D_NET chanx_right_in[5] 0.009222189 //LENGTH 94.235 LUMPCC 0.001516787 DR

*CONN
*P chanx_right_in[5] I *L 0.29796 *C 111.930 9.520
*I mux_top_track_8\/mux_l1_in_0_:A0 I *L 0.001631 *C 53.190 44.200
*N chanx_right_in[5]:2 *C 53.227 44.200
*N chanx_right_in[5]:3 *C 53.775 44.200
*N chanx_right_in[5]:4 *C 53.820 44.155
*N chanx_right_in[5]:5 *C 53.820 9.578
*N chanx_right_in[5]:6 *C 53.828 9.520
*N chanx_right_in[5]:7 *C 103.655 9.520

*CAP
0 chanx_right_in[5] 0.0003878771
1 mux_top_track_8\/mux_l1_in_0_:A0 1e-06
2 chanx_right_in[5]:2 7.656192e-05
3 chanx_right_in[5]:3 7.656192e-05
4 chanx_right_in[5]:4 0.001602742
5 chanx_right_in[5]:5 0.001602742
6 chanx_right_in[5]:6 0.00178502
7 chanx_right_in[5]:7 0.002172897
8 chanx_right_in[5] chanx_right_in[2] 0.0001035883
9 chanx_right_in[5]:4 chanx_right_in[2]:15 3.435209e-05
10 chanx_right_in[5]:5 chanx_right_in[2]:16 3.435209e-05
11 chanx_right_in[5]:6 chanx_right_in[2]:17 0.0006204533
12 chanx_right_in[5]:7 chanx_right_in[2] 0.0006204533
13 chanx_right_in[5]:7 chanx_right_in[2]:17 0.0001035883

*RES
0 chanx_right_in[5] chanx_right_in[5]:7 0.001296417
1 chanx_right_in[5]:2 mux_top_track_8\/mux_l1_in_0_:A0 0.152
2 chanx_right_in[5]:3 chanx_right_in[5]:2 0.0004888393
3 chanx_right_in[5]:4 chanx_right_in[5]:3 0.0045
4 chanx_right_in[5]:5 chanx_right_in[5]:4 0.03087277
5 chanx_right_in[5]:6 chanx_right_in[5]:5 0.00341
6 chanx_right_in[5]:7 chanx_right_in[5]:6 0.007806308

*END

*D_NET right_top_grid_pin_45_[0] 0.01165533 //LENGTH 78.420 LUMPCC 0.002302582 DR

*CONN
*P right_top_grid_pin_45_[0] I *L 0.29796 *C 109.020 74.870
*I mux_right_track_6\/mux_l1_in_1_:A1 I *L 0.00198 *C 79.025 83.300
*I mux_right_track_2\/mux_l1_in_1_:A1 I *L 0.00198 *C 78.105 85.340
*I mux_right_track_14\/mux_l1_in_0_:A0 I *L 0.001631 *C 70.095 64.600
*N right_top_grid_pin_45_[0]:4 *C 70.095 64.600
*N right_top_grid_pin_45_[0]:5 *C 70.380 64.600
*N right_top_grid_pin_45_[0]:6 *C 70.380 64.645
*N right_top_grid_pin_45_[0]:7 *C 70.380 66.583
*N right_top_grid_pin_45_[0]:8 *C 70.388 66.640
*N right_top_grid_pin_45_[0]:9 *C 72.680 66.640
*N right_top_grid_pin_45_[0]:10 *C 78.105 85.340
*N right_top_grid_pin_45_[0]:11 *C 78.200 85.295
*N right_top_grid_pin_45_[0]:12 *C 79.062 83.300
*N right_top_grid_pin_45_[0]:13 *C 79.580 83.300
*N right_top_grid_pin_45_[0]:14 *C 79.580 83.640
*N right_top_grid_pin_45_[0]:15 *C 78.245 83.640
*N right_top_grid_pin_45_[0]:16 *C 78.200 83.640
*N right_top_grid_pin_45_[0]:17 *C 78.200 82.280
*N right_top_grid_pin_45_[0]:18 *C 77.740 82.280
*N right_top_grid_pin_45_[0]:19 *C 77.740 79.618
*N right_top_grid_pin_45_[0]:20 *C 77.733 79.560
*N right_top_grid_pin_45_[0]:21 *C 72.700 79.560
*N right_top_grid_pin_45_[0]:22 *C 72.680 79.553
*N right_top_grid_pin_45_[0]:23 *C 72.680 67.328
*N right_top_grid_pin_45_[0]:24 *C 72.680 67.320
*N right_top_grid_pin_45_[0]:25 *C 109.013 67.320
*N right_top_grid_pin_45_[0]:26 *C 109.020 67.377

*CAP
0 right_top_grid_pin_45_[0] 0.0004763082
1 mux_right_track_6\/mux_l1_in_1_:A1 1e-06
2 mux_right_track_2\/mux_l1_in_1_:A1 1e-06
3 mux_right_track_14\/mux_l1_in_0_:A0 1e-06
4 right_top_grid_pin_45_[0]:4 5.438647e-05
5 right_top_grid_pin_45_[0]:5 5.587357e-05
6 right_top_grid_pin_45_[0]:6 0.0001319993
7 right_top_grid_pin_45_[0]:7 0.0001319993
8 right_top_grid_pin_45_[0]:8 0.0001340653
9 right_top_grid_pin_45_[0]:9 0.0001946941
10 right_top_grid_pin_45_[0]:10 2.748493e-05
11 right_top_grid_pin_45_[0]:11 0.0001083591
12 right_top_grid_pin_45_[0]:12 3.784716e-05
13 right_top_grid_pin_45_[0]:13 6.407152e-05
14 right_top_grid_pin_45_[0]:14 0.0001418713
15 right_top_grid_pin_45_[0]:15 0.0001156469
16 right_top_grid_pin_45_[0]:16 0.000226306
17 right_top_grid_pin_45_[0]:17 0.0001163641
18 right_top_grid_pin_45_[0]:18 0.0002121324
19 right_top_grid_pin_45_[0]:19 0.0001809133
20 right_top_grid_pin_45_[0]:20 0.0004286178
21 right_top_grid_pin_45_[0]:21 0.0004286178
22 right_top_grid_pin_45_[0]:22 0.001198514
23 right_top_grid_pin_45_[0]:23 0.001198514
24 right_top_grid_pin_45_[0]:24 0.001634743
25 right_top_grid_pin_45_[0]:25 0.001574114
26 right_top_grid_pin_45_[0]:26 0.0004763082
27 right_top_grid_pin_45_[0]:25 prog_clk[0]:102 5.607733e-05
28 right_top_grid_pin_45_[0]:25 prog_clk[0]:116 0.0001629619
29 right_top_grid_pin_45_[0]:25 prog_clk[0]:121 7.373455e-05
30 right_top_grid_pin_45_[0]:25 prog_clk[0]:123 8.197381e-07
31 right_top_grid_pin_45_[0]:25 prog_clk[0]:124 8.197381e-07
32 right_top_grid_pin_45_[0]:25 prog_clk[0]:129 7.947512e-05
33 right_top_grid_pin_45_[0]:25 prog_clk[0]:138 1.335477e-05
34 right_top_grid_pin_45_[0]:8 prog_clk[0]:139 5.266659e-05
35 right_top_grid_pin_45_[0]:24 prog_clk[0]:116 5.607733e-05
36 right_top_grid_pin_45_[0]:24 prog_clk[0]:121 0.0001629619
37 right_top_grid_pin_45_[0]:24 prog_clk[0]:122 7.373455e-05
38 right_top_grid_pin_45_[0]:24 prog_clk[0]:124 8.197381e-07
39 right_top_grid_pin_45_[0]:24 prog_clk[0]:129 8.197381e-07
40 right_top_grid_pin_45_[0]:24 prog_clk[0]:132 5.261229e-06
41 right_top_grid_pin_45_[0]:24 prog_clk[0]:138 7.947512e-05
42 right_top_grid_pin_45_[0]:24 prog_clk[0]:139 1.335477e-05
43 right_top_grid_pin_45_[0]:9 prog_clk[0]:133 5.261229e-06
44 right_top_grid_pin_45_[0]:9 prog_clk[0]:138 5.266659e-05
45 right_top_grid_pin_45_[0]:25 mux_right_track_0/sky130_fd_sc_hd__mux2_1_5_X[0]:6 0.0006899564
46 right_top_grid_pin_45_[0]:8 mux_right_track_0/sky130_fd_sc_hd__mux2_1_5_X[0]:7 1.616384e-05
47 right_top_grid_pin_45_[0]:24 mux_right_track_0/sky130_fd_sc_hd__mux2_1_5_X[0]:7 0.0006899564
48 right_top_grid_pin_45_[0]:9 mux_right_track_0/sky130_fd_sc_hd__mux2_1_5_X[0]:6 1.616384e-05

*RES
0 right_top_grid_pin_45_[0] right_top_grid_pin_45_[0]:26 0.006689732
1 right_top_grid_pin_45_[0]:10 mux_right_track_2\/mux_l1_in_1_:A1 0.152
2 right_top_grid_pin_45_[0]:11 right_top_grid_pin_45_[0]:10 0.0045
3 right_top_grid_pin_45_[0]:15 right_top_grid_pin_45_[0]:14 0.001191964
4 right_top_grid_pin_45_[0]:16 right_top_grid_pin_45_[0]:15 0.0045
5 right_top_grid_pin_45_[0]:16 right_top_grid_pin_45_[0]:11 0.001477679
6 right_top_grid_pin_45_[0]:12 mux_right_track_6\/mux_l1_in_1_:A1 0.152
7 right_top_grid_pin_45_[0]:26 right_top_grid_pin_45_[0]:25 0.00341
8 right_top_grid_pin_45_[0]:25 right_top_grid_pin_45_[0]:24 0.005692091
9 right_top_grid_pin_45_[0]:7 right_top_grid_pin_45_[0]:6 0.001729911
10 right_top_grid_pin_45_[0]:8 right_top_grid_pin_45_[0]:7 0.00341
11 right_top_grid_pin_45_[0]:5 right_top_grid_pin_45_[0]:4 0.0001548913
12 right_top_grid_pin_45_[0]:6 right_top_grid_pin_45_[0]:5 0.0045
13 right_top_grid_pin_45_[0]:4 mux_right_track_14\/mux_l1_in_0_:A0 0.152
14 right_top_grid_pin_45_[0]:24 right_top_grid_pin_45_[0]:23 0.00341
15 right_top_grid_pin_45_[0]:24 right_top_grid_pin_45_[0]:9 0.0001065333
16 right_top_grid_pin_45_[0]:23 right_top_grid_pin_45_[0]:22 0.00191525
17 right_top_grid_pin_45_[0]:21 right_top_grid_pin_45_[0]:20 0.000788425
18 right_top_grid_pin_45_[0]:22 right_top_grid_pin_45_[0]:21 0.00341
19 right_top_grid_pin_45_[0]:19 right_top_grid_pin_45_[0]:18 0.002377233
20 right_top_grid_pin_45_[0]:20 right_top_grid_pin_45_[0]:19 0.00341
21 right_top_grid_pin_45_[0]:14 right_top_grid_pin_45_[0]:13 0.0003035715
22 right_top_grid_pin_45_[0]:13 right_top_grid_pin_45_[0]:12 0.0004620536
23 right_top_grid_pin_45_[0]:18 right_top_grid_pin_45_[0]:17 0.0004107143
24 right_top_grid_pin_45_[0]:17 right_top_grid_pin_45_[0]:16 0.001214286
25 right_top_grid_pin_45_[0]:9 right_top_grid_pin_45_[0]:8 0.0003591583

*END

*D_NET mux_tree_tapbuf_size2_11_sram[1] 0.002208979 //LENGTH 18.450 LUMPCC 0 DR

*CONN
*I mem_right_track_26\/sky130_fd_sc_hd__dfxbp_1_1_:Q O *L 0 *C 57.805 66.640
*I mem_right_track_26\/FTB_12__33:A I *L 0.001746 *C 52.440 63.920
*I mux_right_track_26\/mux_l2_in_0_:S I *L 0.00357 *C 64.280 68.680
*N mux_tree_tapbuf_size2_11_sram[1]:3 *C 64.243 68.680
*N mux_tree_tapbuf_size2_11_sram[1]:4 *C 58.465 68.680
*N mux_tree_tapbuf_size2_11_sram[1]:5 *C 58.420 68.635
*N mux_tree_tapbuf_size2_11_sram[1]:6 *C 52.477 63.920
*N mux_tree_tapbuf_size2_11_sram[1]:7 *C 58.375 63.920
*N mux_tree_tapbuf_size2_11_sram[1]:8 *C 58.420 63.965
*N mux_tree_tapbuf_size2_11_sram[1]:9 *C 58.420 66.640
*N mux_tree_tapbuf_size2_11_sram[1]:10 *C 58.375 66.640
*N mux_tree_tapbuf_size2_11_sram[1]:11 *C 57.843 66.640

*CAP
0 mem_right_track_26\/sky130_fd_sc_hd__dfxbp_1_1_:Q 1e-06
1 mem_right_track_26\/FTB_12__33:A 1e-06
2 mux_right_track_26\/mux_l2_in_0_:S 1e-06
3 mux_tree_tapbuf_size2_11_sram[1]:3 0.0004347698
4 mux_tree_tapbuf_size2_11_sram[1]:4 0.0004347698
5 mux_tree_tapbuf_size2_11_sram[1]:5 0.0001232811
6 mux_tree_tapbuf_size2_11_sram[1]:6 0.0003284847
7 mux_tree_tapbuf_size2_11_sram[1]:7 0.0003284847
8 mux_tree_tapbuf_size2_11_sram[1]:8 0.0001347417
9 mux_tree_tapbuf_size2_11_sram[1]:9 0.0002863508
10 mux_tree_tapbuf_size2_11_sram[1]:10 6.754808e-05
11 mux_tree_tapbuf_size2_11_sram[1]:11 6.754808e-05

*RES
0 mem_right_track_26\/sky130_fd_sc_hd__dfxbp_1_1_:Q mux_tree_tapbuf_size2_11_sram[1]:11 0.152
1 mux_tree_tapbuf_size2_11_sram[1]:3 mux_right_track_26\/mux_l2_in_0_:S 0.152
2 mux_tree_tapbuf_size2_11_sram[1]:4 mux_tree_tapbuf_size2_11_sram[1]:3 0.005158482
3 mux_tree_tapbuf_size2_11_sram[1]:5 mux_tree_tapbuf_size2_11_sram[1]:4 0.0045
4 mux_tree_tapbuf_size2_11_sram[1]:7 mux_tree_tapbuf_size2_11_sram[1]:6 0.005265625
5 mux_tree_tapbuf_size2_11_sram[1]:8 mux_tree_tapbuf_size2_11_sram[1]:7 0.0045
6 mux_tree_tapbuf_size2_11_sram[1]:6 mem_right_track_26\/FTB_12__33:A 0.152
7 mux_tree_tapbuf_size2_11_sram[1]:10 mux_tree_tapbuf_size2_11_sram[1]:9 0.0045
8 mux_tree_tapbuf_size2_11_sram[1]:9 mux_tree_tapbuf_size2_11_sram[1]:8 0.002388393
9 mux_tree_tapbuf_size2_11_sram[1]:9 mux_tree_tapbuf_size2_11_sram[1]:5 0.00178125
10 mux_tree_tapbuf_size2_11_sram[1]:11 mux_tree_tapbuf_size2_11_sram[1]:10 0.0004754464

*END

*D_NET mux_tree_tapbuf_size2_6_sram[1] 0.001238175 //LENGTH 10.895 LUMPCC 0 DR

*CONN
*I mem_right_track_14\/sky130_fd_sc_hd__dfxbp_1_1_:Q O *L 0 *C 72.985 53.380
*I mux_right_track_14\/mux_l2_in_0_:S I *L 0.00357 *C 76.720 58.140
*I mem_right_track_14\/FTB_7__28:A I *L 0.001746 *C 77.740 53.040