*SPEF "1481-1998"
*DESIGN "sb_0__2_"
*DATE "Tue Oct 27 11:35:06 2020"
*
*
*
*
*DIVIDER /
*DELIMITER :
*T_UNIT 1 NS
*C_UNIT 1 PF
*R_UNIT 1 KOHM
*L_UNIT 1 HENRY

// XY_UNIT 1 UM
// PARASITIC_TECH nominal at 25.000 degree

*PORTS
prog_clk[0] I *C 17.020 0.680
chanx_right_in[0] I *C 83.950 72.080
chanx_right_in[1] I *C 83.950 54.400
chanx_right_in[2] I *C 83.950 73.440
chanx_right_in[3] I *C 83.950 69.360
chanx_right_in[4] I *C 83.950 70.720
chanx_right_in[5] I *C 83.950 29.920
chanx_right_in[6] I *C 83.950 24.480
chanx_right_in[7] I *C 83.950 74.800
chanx_right_in[8] I *C 83.950 55.760
chanx_right_in[9] I *C 83.950 28.560
chanx_right_in[10] I *C 83.950 52.360
chanx_right_in[11] I *C 83.950 36.720
chanx_right_in[12] I *C 83.950 47.600
chanx_right_in[13] I *C 83.950 27.200
chanx_right_in[14] I *C 83.950 25.840
chanx_right_in[15] I *C 83.950 44.880
chanx_right_in[16] I *C 83.950 32.640
chanx_right_in[17] I *C 83.950 50.320
chanx_right_in[18] I *C 83.950 46.240
chanx_right_in[19] I *C 83.950 35.360
right_top_grid_pin_1_[0] I *C 80.960 80.920
chany_bottom_in[0] I *C 46.920 0.680
chany_bottom_in[1] I *C 16.560 0.680
chany_bottom_in[2] I *C 43.240 0.680
chany_bottom_in[3] I *C 14.720 0.680
chany_bottom_in[4] I *C 56.120 0.680
chany_bottom_in[5] I *C 46.000 0.680
chany_bottom_in[6] I *C 23.000 0.680
chany_bottom_in[7] I *C 27.600 0.680
chany_bottom_in[8] I *C 9.660 0.680
chany_bottom_in[9] I *C 20.240 0.680
chany_bottom_in[10] I *C 41.400 0.680
chany_bottom_in[11] I *C 38.640 0.680
chany_bottom_in[12] I *C 58.880 0.680
chany_bottom_in[13] I *C 57.960 0.680
chany_bottom_in[14] I *C 57.040 0.680
chany_bottom_in[15] I *C 23.920 0.680
chany_bottom_in[16] I *C 35.880 0.680
chany_bottom_in[17] I *C 34.960 0.680
chany_bottom_in[18] I *C 34.040 0.680
chany_bottom_in[19] I *C 30.820 0.680
bottom_left_grid_pin_1_[0] I *C 2.300 0.680
ccff_head[0] I *C 81.880 80.920
chanx_right_out[0] O *C 83.950 48.960
chanx_right_out[1] O *C 83.950 38.080
chanx_right_out[2] O *C 83.950 31.280
chanx_right_out[3] O *C 83.950 68.000
chanx_right_out[4] O *C 83.950 34.000
chanx_right_out[5] O *C 83.950 57.120
chanx_right_out[6] O *C 83.950 66.640
chanx_right_out[7] O *C 83.950 58.480
chanx_right_out[8] O *C 83.950 65.280
chanx_right_out[9] O *C 83.950 42.160
chanx_right_out[10] O *C 83.950 20.400
chanx_right_out[11] O *C 83.950 59.840
chanx_right_out[12] O *C 83.950 21.760
chanx_right_out[13] O *C 83.950 39.440
chanx_right_out[14] O *C 83.950 63.920
chanx_right_out[15] O *C 83.950 40.800
chanx_right_out[16] O *C 83.950 43.520
chanx_right_out[17] O *C 83.950 61.200
chanx_right_out[18] O *C 83.950 62.560
chanx_right_out[19] O *C 83.950 23.120
chany_bottom_out[0] O *C 22.080 0.680
chany_bottom_out[1] O *C 44.160 0.680
chany_bottom_out[2] O *C 45.080 0.680
chany_bottom_out[3] O *C 54.280 0.680
chany_bottom_out[4] O *C 42.320 0.680
chany_bottom_out[5] O *C 53.360 0.680
chany_bottom_out[6] O *C 51.520 0.680
chany_bottom_out[7] O *C 47.840 0.680
chany_bottom_out[8] O *C 50.600 0.680
chany_bottom_out[9] O *C 29.900 0.680
chany_bottom_out[10] O *C 21.160 0.680
chany_bottom_out[11] O *C 46.920 0.680
chany_bottom_out[12] O *C 52.440 0.680
chany_bottom_out[13] O *C 48.760 0.680
chany_bottom_out[14] O *C 49.680 0.680
chany_bottom_out[15] O *C 28.980 0.680
chany_bottom_out[16] O *C 33.120 0.680
chany_bottom_out[17] O *C 24.840 0.680
chany_bottom_out[18] O *C 27.140 0.680
chany_bottom_out[19] O *C 28.060 0.680
ccff_tail[0] O *C 32.200 0.680
VDD I *C 42.320 40.800
VSS I *C 42.320 40.800

*D_NET chanx_right_in[0] 0.01192469 //LENGTH 115.765 LUMPCC 0.003175619 DR

*CONN
*P chanx_right_in[0] I *L 0.29796 *C 83.410 72.080
*I BUFT_P_91:A I *L 0.001776 *C 28.980 12.240
*N chanx_right_in[0]:2 *C 28.980 12.255
*N chanx_right_in[0]:3 *C 28.980 12.580
*N chanx_right_in[0]:4 *C 28.980 12.625
*N chanx_right_in[0]:5 *C 28.980 19.663
*N chanx_right_in[0]:6 *C 28.988 19.720
*N chanx_right_in[0]:7 *C 30.340 19.720
*N chanx_right_in[0]:8 *C 30.360 19.728
*N chanx_right_in[0]:9 *C 30.360 72.073
*N chanx_right_in[0]:10 *C 30.380 72.080

*CAP
0 chanx_right_in[0] 0.001998477
1 BUFT_P_91:A 1e-06
2 chanx_right_in[0]:2 3.802987e-05
3 chanx_right_in[0]:3 7.329852e-05
4 chanx_right_in[0]:4 0.0004537413
5 chanx_right_in[0]:5 0.0004537413
6 chanx_right_in[0]:6 0.0001200719
7 chanx_right_in[0]:7 0.0001200719
8 chanx_right_in[0]:8 0.001746082
9 chanx_right_in[0]:9 0.001746082
10 chanx_right_in[0]:10 0.001998477
11 chanx_right_in[0] chanx_right_in[2] 0.0006745001
12 chanx_right_in[0]:10 chanx_right_in[2]:12 0.0006745001
13 chanx_right_in[0] chanx_right_in[4] 0.0003569221
14 chanx_right_in[0]:10 chanx_right_in[4]:24 0.0003569221
15 chanx_right_in[0]:8 chany_bottom_in[7] 0.0005563869
16 chanx_right_in[0]:9 chany_bottom_in[7]:8 0.0005563869

*RES
0 chanx_right_in[0] chanx_right_in[0]:10 0.008308033
1 chanx_right_in[0]:2 BUFT_P_91:A 0.152
2 chanx_right_in[0]:3 chanx_right_in[0]:2 0.0001766305
3 chanx_right_in[0]:4 chanx_right_in[0]:3 0.0045
4 chanx_right_in[0]:5 chanx_right_in[0]:4 0.006283483
5 chanx_right_in[0]:6 chanx_right_in[0]:5 0.00341
6 chanx_right_in[0]:7 chanx_right_in[0]:6 0.0002118916
7 chanx_right_in[0]:8 chanx_right_in[0]:7 0.00341
8 chanx_right_in[0]:10 chanx_right_in[0]:9 0.00341
9 chanx_right_in[0]:9 chanx_right_in[0]:8 0.008200716

*END

*D_NET chany_bottom_in[11] 0.01047891 //LENGTH 93.880 LUMPCC 0.001078312 DR

*CONN
*P chany_bottom_in[11] I *L 0.29796 *C 38.640 1.290
*I ropt_mt_inst_702:A I *L 0.001767 *C 73.140 55.760
*N chany_bottom_in[11]:2 *C 73.140 55.760
*N chany_bottom_in[11]:3 *C 73.140 55.715
*N chany_bottom_in[11]:4 *C 73.140 55.125
*N chany_bottom_in[11]:5 *C 73.095 55.080
*N chany_bottom_in[11]:6 *C 69.460 55.080
*N chany_bottom_in[11]:7 *C 69.540 56.440
*N chany_bottom_in[11]:8 *C 69.470 56.395
*N chany_bottom_in[11]:9 *C 69.460 55.805
*N chany_bottom_in[11]:10 *C 69.460 55.760
*N chany_bottom_in[11]:11 *C 68.585 55.760
*N chany_bottom_in[11]:12 *C 68.540 55.715
*N chany_bottom_in[11]:13 *C 68.540 52.405
*N chany_bottom_in[11]:14 *C 68.495 52.360
*N chany_bottom_in[11]:15 *C 38.685 52.360
*N chany_bottom_in[11]:16 *C 38.640 52.315

*CAP
0 chany_bottom_in[11] 0.002143893
1 ropt_mt_inst_702:A 1e-06
2 chany_bottom_in[11]:2 4.059323e-05
3 chany_bottom_in[11]:3 6.390626e-05
4 chany_bottom_in[11]:4 6.390626e-05
5 chany_bottom_in[11]:5 0.000242943
6 chany_bottom_in[11]:6 0.0002795832
7 chany_bottom_in[11]:7 7.009062e-05
8 chany_bottom_in[11]:8 5.407053e-05
9 chany_bottom_in[11]:9 5.407053e-05
10 chany_bottom_in[11]:10 0.0001433684
11 chany_bottom_in[11]:11 6.715673e-05
12 chany_bottom_in[11]:12 0.0001896707
13 chany_bottom_in[11]:13 0.0001896707
14 chany_bottom_in[11]:14 0.001826389
15 chany_bottom_in[11]:15 0.001826389
16 chany_bottom_in[11]:16 0.002143893
17 chany_bottom_in[11] optlc_net_97:25 3.229784e-05
18 chany_bottom_in[11] optlc_net_97:14 3.370288e-05
19 chany_bottom_in[11] optlc_net_97:29 6.576111e-05
20 chany_bottom_in[11] optlc_net_97:28 0.0001419185
21 chany_bottom_in[11]:16 optlc_net_97:14 6.576111e-05
22 chany_bottom_in[11]:16 optlc_net_97:11 3.370288e-05
23 chany_bottom_in[11]:16 optlc_net_97:29 0.0001419185
24 chany_bottom_in[11]:16 optlc_net_97:28 3.229784e-05
25 chany_bottom_in[11] mux_bottom_track_5/sky130_fd_sc_hd__mux2_1_1_X[0]:5 0.0002027326
26 chany_bottom_in[11]:16 mux_bottom_track_5/sky130_fd_sc_hd__mux2_1_1_X[0]:6 0.0002027326
27 chany_bottom_in[11] BUF_net_42:4 6.274295e-05
28 chany_bottom_in[11]:16 BUF_net_42:5 6.274295e-05

*RES
0 chany_bottom_in[11] chany_bottom_in[11]:16 0.04555804
1 chany_bottom_in[11]:11 chany_bottom_in[11]:10 0.00078125
2 chany_bottom_in[11]:12 chany_bottom_in[11]:11 0.0045
3 chany_bottom_in[11]:14 chany_bottom_in[11]:13 0.0045
4 chany_bottom_in[11]:13 chany_bottom_in[11]:12 0.002955357
5 chany_bottom_in[11]:15 chany_bottom_in[11]:14 0.02661607
6 chany_bottom_in[11]:16 chany_bottom_in[11]:15 0.0045
7 chany_bottom_in[11]:10 chany_bottom_in[11]:9 0.0045
8 chany_bottom_in[11]:10 chany_bottom_in[11]:6 0.0006071429
9 chany_bottom_in[11]:9 chany_bottom_in[11]:8 0.0005267857
10 chany_bottom_in[11]:8 chany_bottom_in[11]:7 0.0045
11 chany_bottom_in[11]:5 chany_bottom_in[11]:4 0.0045
12 chany_bottom_in[11]:4 chany_bottom_in[11]:3 0.0005267857
13 chany_bottom_in[11]:2 ropt_mt_inst_702:A 0.152
14 chany_bottom_in[11]:3 chany_bottom_in[11]:2 0.0045
15 chany_bottom_in[11]:6 chany_bottom_in[11]:5 0.003245536

*END

*D_NET chanx_right_in[18] 0.005946053 //LENGTH 49.615 LUMPCC 0.001553447 DR

*CONN
*P chanx_right_in[18] I *L 0.29796 *C 83.410 46.240
*I mux_bottom_track_1\/mux_l1_in_0_:A1 I *L 0.00198 *C 41.765 39.780
*N chanx_right_in[18]:2 *C 41.765 39.780
*N chanx_right_in[18]:3 *C 41.860 39.440
*N chanx_right_in[18]:4 *C 49.175 39.440
*N chanx_right_in[18]:5 *C 49.220 39.485
*N chanx_right_in[18]:6 *C 49.220 46.183
*N chanx_right_in[18]:7 *C 49.227 46.240

*CAP
0 chanx_right_in[18] 0.001422126
1 mux_bottom_track_1\/mux_l1_in_0_:A1 1e-06
2 chanx_right_in[18]:2 5.472117e-05
3 chanx_right_in[18]:3 0.000418966
4 chanx_right_in[18]:4 0.0003919638
5 chanx_right_in[18]:5 0.0003408517
6 chanx_right_in[18]:6 0.0003408517
7 chanx_right_in[18]:7 0.001422126
8 chanx_right_in[18] chanx_right_in[12] 0.0004799773
9 chanx_right_in[18]:7 chanx_right_in[12]:17 0.0004799773
10 chanx_right_in[18] chanx_right_in[15] 0.0002790656
11 chanx_right_in[18] chanx_right_in[15]:21 1.768056e-05
12 chanx_right_in[18]:7 chanx_right_in[15]:20 1.768056e-05
13 chanx_right_in[18]:7 chanx_right_in[15]:22 0.0002790656

*RES
0 chanx_right_in[18] chanx_right_in[18]:7 0.005355258
1 chanx_right_in[18]:2 mux_bottom_track_1\/mux_l1_in_0_:A1 0.152
2 chanx_right_in[18]:4 chanx_right_in[18]:3 0.00653125
3 chanx_right_in[18]:5 chanx_right_in[18]:4 0.0045
4 chanx_right_in[18]:6 chanx_right_in[18]:5 0.005979911
5 chanx_right_in[18]:7 chanx_right_in[18]:6 0.00341
6 chanx_right_in[18]:3 chanx_right_in[18]:2 0.0003035715

*END

*D_NET chany_bottom_in[16] 0.01093318 //LENGTH 76.695 LUMPCC 0.004079131 DR

*CONN
*P chany_bottom_in[16] I *L 0.29796 *C 35.880 1.325
*I mux_right_track_4\/mux_l1_in_0_:A0 I *L 0.001631 *C 75.155 37.060
*N chany_bottom_in[16]:2 *C 75.155 37.060
*N chany_bottom_in[16]:3 *C 74.980 37.060
*N chany_bottom_in[16]:4 *C 74.980 37.015
*N chany_bottom_in[16]:5 *C 74.980 33.378
*N chany_bottom_in[16]:6 *C 74.972 33.320
*N chany_bottom_in[16]:7 *C 50.620 33.320
*N chany_bottom_in[16]:8 *C 50.600 33.312
*N chany_bottom_in[16]:9 *C 50.600 2.048
*N chany_bottom_in[16]:10 *C 50.580 2.040
*N chany_bottom_in[16]:11 *C 35.888 2.040
*N chany_bottom_in[16]:12 *C 35.880 1.983

*CAP
0 chany_bottom_in[16] 4.695769e-05
1 mux_right_track_4\/mux_l1_in_0_:A0 1e-06
2 chany_bottom_in[16]:2 6.229799e-05
3 chany_bottom_in[16]:3 6.693411e-05
4 chany_bottom_in[16]:4 0.000229911
5 chany_bottom_in[16]:5 0.000229911
6 chany_bottom_in[16]:6 0.0008963972
7 chany_bottom_in[16]:7 0.0008963972
8 chany_bottom_in[16]:8 0.00142211
9 chany_bottom_in[16]:9 0.00142211
10 chany_bottom_in[16]:10 0.000766532
11 chany_bottom_in[16]:11 0.000766532
12 chany_bottom_in[16]:12 4.695769e-05
13 chany_bottom_in[16]:6 chanx_right_in[19] 0.0003191062
14 chany_bottom_in[16]:7 chanx_right_in[19]:14 0.0003191062
15 chany_bottom_in[16] chany_bottom_in[17] 9.121771e-06
16 chany_bottom_in[16]:6 chany_bottom_in[17]:5 3.232881e-05
17 chany_bottom_in[16]:7 chany_bottom_in[17]:6 3.232881e-05
18 chany_bottom_in[16]:8 chany_bottom_in[17]:7 0.0004849507
19 chany_bottom_in[16]:10 chany_bottom_in[17]:9 0.0001808129
20 chany_bottom_in[16]:9 chany_bottom_in[17]:8 0.0004849507
21 chany_bottom_in[16]:12 chany_bottom_in[17]:11 9.121771e-06
22 chany_bottom_in[16]:11 chany_bottom_in[17]:10 0.0001808129
23 chany_bottom_in[16]:6 chanx_right_in[16] 0.001013245
24 chany_bottom_in[16]:7 chanx_right_in[16]:10 0.001013245

*RES
0 chany_bottom_in[16] chany_bottom_in[16]:12 0.0005870535
1 chany_bottom_in[16]:2 mux_right_track_4\/mux_l1_in_0_:A0 0.152
2 chany_bottom_in[16]:3 chany_bottom_in[16]:2 9.51087e-05
3 chany_bottom_in[16]:4 chany_bottom_in[16]:3 0.0045
4 chany_bottom_in[16]:5 chany_bottom_in[16]:4 0.003247768
5 chany_bottom_in[16]:6 chany_bottom_in[16]:5 0.00341
6 chany_bottom_in[16]:7 chany_bottom_in[16]:6 0.003815225
7 chany_bottom_in[16]:8 chany_bottom_in[16]:7 0.00341
8 chany_bottom_in[16]:10 chany_bottom_in[16]:9 0.00341
9 chany_bottom_in[16]:9 chany_bottom_in[16]:8 0.004898183
10 chany_bottom_in[16]:12 chany_bottom_in[16]:11 0.00341
11 chany_bottom_in[16]:11 chany_bottom_in[16]:10 0.002301825

*END

*D_NET chanx_right_out[2] 0.000951426 //LENGTH 7.485 LUMPCC 0 DR

*CONN
*I mux_right_track_4\/sky130_fd_sc_hd__buf_4_0_:X O *L 0 *C 80.960 33.660
*P chanx_right_out[2] O *L 0.7423 *C 83.410 31.280
*N chanx_right_out[2]:2 *C 80.047 31.280
*N chanx_right_out[2]:3 *C 80.040 31.338
*N chanx_right_out[2]:4 *C 80.040 33.615
*N chanx_right_out[2]:5 *C 80.085 33.660
*N chanx_right_out[2]:6 *C 80.922 33.660

*CAP
0 mux_right_track_4\/sky130_fd_sc_hd__buf_4_0_:X 1e-06
1 chanx_right_out[2] 0.000250868
2 chanx_right_out[2]:2 0.000250868
3 chanx_right_out[2]:3 0.0001510135
4 chanx_right_out[2]:4 0.0001510135
5 chanx_right_out[2]:5 7.333145e-05
6 chanx_right_out[2]:6 7.333145e-05

*RES
0 mux_right_track_4\/sky130_fd_sc_hd__buf_4_0_:X chanx_right_out[2]:6 0.152
1 chanx_right_out[2]:6 chanx_right_out[2]:5 0.000747768
2 chanx_right_out[2]:5 chanx_right_out[2]:4 0.0045
3 chanx_right_out[2]:4 chanx_right_out[2]:3 0.002033482
4 chanx_right_out[2]:3 chanx_right_out[2]:2 0.00341
5 chanx_right_out[2]:2 chanx_right_out[2] 0.0005267917

*END

*D_NET chany_bottom_out[12] 0.002433703 //LENGTH 18.555 LUMPCC 0.0001416813 DR

*CONN
*I mux_bottom_track_25\/sky130_fd_sc_hd__buf_4_0_:X O *L 0 *C 50.200 15.300
*P chany_bottom_out[12] O *L 0.7423 *C 52.440 1.290
*N chany_bottom_out[12]:2 *C 52.440 1.995
*N chany_bottom_out[12]:3 *C 52.395 2.040
*N chany_bottom_out[12]:4 *C 51.105 2.040
*N chany_bottom_out[12]:5 *C 51.060 2.085
*N chany_bottom_out[12]:6 *C 51.060 6.800
*N chany_bottom_out[12]:7 *C 51.520 6.800
*N chany_bottom_out[12]:8 *C 51.520 15.255
*N chany_bottom_out[12]:9 *C 51.475 15.300
*N chany_bottom_out[12]:10 *C 50.238 15.300

*CAP
0 mux_bottom_track_25\/sky130_fd_sc_hd__buf_4_0_:X 1e-06
1 chany_bottom_out[12] 5.588284e-05
2 chany_bottom_out[12]:2 5.588284e-05
3 chany_bottom_out[12]:3 0.0001077363
4 chany_bottom_out[12]:4 0.0001077363
5 chany_bottom_out[12]:5 0.0003518359
6 chany_bottom_out[12]:6 0.0003838961
7 chany_bottom_out[12]:7 0.0005052201
8 chany_bottom_out[12]:8 0.0004731598
9 chany_bottom_out[12]:9 0.0001248356
10 chany_bottom_out[12]:10 0.0001248356
11 chany_bottom_out[12]:8 mux_bottom_track_25/sky130_fd_sc_hd__mux2_1_0_X[0]:4 7.084063e-05
12 chany_bottom_out[12]:7 mux_bottom_track_25/sky130_fd_sc_hd__mux2_1_0_X[0]:5 7.084063e-05

*RES
0 mux_bottom_track_25\/sky130_fd_sc_hd__buf_4_0_:X chany_bottom_out[12]:10 0.152
1 chany_bottom_out[12]:10 chany_bottom_out[12]:9 0.001104911
2 chany_bottom_out[12]:9 chany_bottom_out[12]:8 0.0045
3 chany_bottom_out[12]:8 chany_bottom_out[12]:7 0.007549108
4 chany_bottom_out[12]:4 chany_bottom_out[12]:3 0.001151786
5 chany_bottom_out[12]:5 chany_bottom_out[12]:4 0.0045
6 chany_bottom_out[12]:3 chany_bottom_out[12]:2 0.0045
7 chany_bottom_out[12]:2 chany_bottom_out[12] 0.0006294643
8 chany_bottom_out[12]:6 chany_bottom_out[12]:5 0.004209822
9 chany_bottom_out[12]:7 chany_bottom_out[12]:6 0.0004107143

*END

*D_NET mux_tree_tapbuf_size2_2_sram[0] 0.002264549 //LENGTH 17.535 LUMPCC 0.0002914642 DR

*CONN
*I mem_right_track_8\/sky130_fd_sc_hd__dfxbp_1_0_:Q O *L 0 *C 68.385 33.660
*I mem_right_track_8\/sky130_fd_sc_hd__dfxbp_1_1_:D I *L 0.001695 *C 65.955 28.220
*I mux_right_track_8\/mux_l1_in_0_:S I *L 0.00357 *C 71.660 25.840
*N mux_tree_tapbuf_size2_2_sram[0]:3 *C 71.623 25.840
*N mux_tree_tapbuf_size2_2_sram[0]:4 *C 68.080 25.840
*N mux_tree_tapbuf_size2_2_sram[0]:5 *C 65.993 28.220
*N mux_tree_tapbuf_size2_2_sram[0]:6 *C 66.655 28.220
*N mux_tree_tapbuf_size2_2_sram[0]:7 *C 66.700 28.175
*N mux_tree_tapbuf_size2_2_sram[0]:8 *C 66.700 26.225
*N mux_tree_tapbuf_size2_2_sram[0]:9 *C 66.745 26.180
*N mux_tree_tapbuf_size2_2_sram[0]:10 *C 68.080 26.150
*N mux_tree_tapbuf_size2_2_sram[0]:11 *C 68.080 26.225
*N mux_tree_tapbuf_size2_2_sram[0]:12 *C 68.080 33.615
*N mux_tree_tapbuf_size2_2_sram[0]:13 *C 68.080 33.660
*N mux_tree_tapbuf_size2_2_sram[0]:14 *C 68.385 33.660

*CAP
0 mem_right_track_8\/sky130_fd_sc_hd__dfxbp_1_0_:Q 1e-06
1 mem_right_track_8\/sky130_fd_sc_hd__dfxbp_1_1_:D 1e-06
2 mux_right_track_8\/mux_l1_in_0_:S 1e-06
3 mux_tree_tapbuf_size2_2_sram[0]:3 0.0001622504
4 mux_tree_tapbuf_size2_2_sram[0]:4 0.0001903086
5 mux_tree_tapbuf_size2_2_sram[0]:5 7.910633e-05
6 mux_tree_tapbuf_size2_2_sram[0]:6 7.910633e-05
7 mux_tree_tapbuf_size2_2_sram[0]:7 0.0001193809
8 mux_tree_tapbuf_size2_2_sram[0]:8 0.0001193809
9 mux_tree_tapbuf_size2_2_sram[0]:9 0.0001256877
10 mux_tree_tapbuf_size2_2_sram[0]:10 0.0001537459
11 mux_tree_tapbuf_size2_2_sram[0]:11 0.0004134677
12 mux_tree_tapbuf_size2_2_sram[0]:12 0.0004134677
13 mux_tree_tapbuf_size2_2_sram[0]:13 5.933382e-05
14 mux_tree_tapbuf_size2_2_sram[0]:14 5.484814e-05
15 mux_tree_tapbuf_size2_2_sram[0]:9 right_top_grid_pin_1_[0]:5 5.407834e-06
16 mux_tree_tapbuf_size2_2_sram[0]:10 right_top_grid_pin_1_[0]:6 5.407834e-06
17 mux_tree_tapbuf_size2_2_sram[0]:3 right_top_grid_pin_1_[0]:6 0.0001083002
18 mux_tree_tapbuf_size2_2_sram[0]:3 right_top_grid_pin_1_[0]:7 3.202412e-05
19 mux_tree_tapbuf_size2_2_sram[0]:4 right_top_grid_pin_1_[0]:5 0.0001083002
20 mux_tree_tapbuf_size2_2_sram[0]:4 right_top_grid_pin_1_[0]:6 3.202412e-05

*RES
0 mem_right_track_8\/sky130_fd_sc_hd__dfxbp_1_0_:Q mux_tree_tapbuf_size2_2_sram[0]:14 0.152
1 mux_tree_tapbuf_size2_2_sram[0]:9 mux_tree_tapbuf_size2_2_sram[0]:8 0.0045
2 mux_tree_tapbuf_size2_2_sram[0]:8 mux_tree_tapbuf_size2_2_sram[0]:7 0.001741071
3 mux_tree_tapbuf_size2_2_sram[0]:6 mux_tree_tapbuf_size2_2_sram[0]:5 0.0005915179
4 mux_tree_tapbuf_size2_2_sram[0]:7 mux_tree_tapbuf_size2_2_sram[0]:6 0.0045
5 mux_tree_tapbuf_size2_2_sram[0]:5 mem_right_track_8\/sky130_fd_sc_hd__dfxbp_1_1_:D 0.152
6 mux_tree_tapbuf_size2_2_sram[0]:10 mux_tree_tapbuf_size2_2_sram[0]:9 0.001191964
7 mux_tree_tapbuf_size2_2_sram[0]:10 mux_tree_tapbuf_size2_2_sram[0]:4 0.0002767857
8 mux_tree_tapbuf_size2_2_sram[0]:11 mux_tree_tapbuf_size2_2_sram[0]:10 0.0045
9 mux_tree_tapbuf_size2_2_sram[0]:13 mux_tree_tapbuf_size2_2_sram[0]:12 0.0045
10 mux_tree_tapbuf_size2_2_sram[0]:12 mux_tree_tapbuf_size2_2_sram[0]:11 0.006598216
11 mux_tree_tapbuf_size2_2_sram[0]:14 mux_tree_tapbuf_size2_2_sram[0]:13 0.0001657609
12 mux_tree_tapbuf_size2_2_sram[0]:3 mux_right_track_8\/mux_l1_in_0_:S 0.152
13 mux_tree_tapbuf_size2_2_sram[0]:4 mux_tree_tapbuf_size2_2_sram[0]:3 0.003162947

*END

*D_NET mux_tree_tapbuf_size2_6_sram[0] 0.002341558 //LENGTH 18.950 LUMPCC 0 DR

*CONN
*I mem_bottom_track_9\/sky130_fd_sc_hd__dfxbp_1_0_:Q O *L 0 *C 37.105 20.740
*I mem_bottom_track_9\/sky130_fd_sc_hd__dfxbp_1_1_:D I *L 0.001695 *C 30.085 15.300
*I mux_bottom_track_9\/mux_l1_in_0_:S I *L 0.00357 *C 34.400 23.415
*N mux_tree_tapbuf_size2_6_sram[0]:3 *C 34.400 23.415
*N mux_tree_tapbuf_size2_6_sram[0]:4 *C 30.123 15.300
*N mux_tree_tapbuf_size2_6_sram[0]:5 *C 32.155 15.300
*N mux_tree_tapbuf_size2_6_sram[0]:6 *C 32.200 15.345
*N mux_tree_tapbuf_size2_6_sram[0]:7 *C 32.200 23.075
*N mux_tree_tapbuf_size2_6_sram[0]:8 *C 32.245 23.120
*N mux_tree_tapbuf_size2_6_sram[0]:9 *C 34.400 23.120
*N mux_tree_tapbuf_size2_6_sram[0]:10 *C 36.755 23.120
*N mux_tree_tapbuf_size2_6_sram[0]:11 *C 36.800 23.075
*N mux_tree_tapbuf_size2_6_sram[0]:12 *C 36.800 20.785
*N mux_tree_tapbuf_size2_6_sram[0]:13 *C 36.800 20.740
*N mux_tree_tapbuf_size2_6_sram[0]:14 *C 37.105 20.740

*CAP
0 mem_bottom_track_9\/sky130_fd_sc_hd__dfxbp_1_0_:Q 1e-06
1 mem_bottom_track_9\/sky130_fd_sc_hd__dfxbp_1_1_:D 1e-06
2 mux_bottom_track_9\/mux_l1_in_0_:S 1e-06
3 mux_tree_tapbuf_size2_6_sram[0]:3 5.90848e-05
4 mux_tree_tapbuf_size2_6_sram[0]:4 0.0001578122
5 mux_tree_tapbuf_size2_6_sram[0]:5 0.0001578122
6 mux_tree_tapbuf_size2_6_sram[0]:6 0.0004459317
7 mux_tree_tapbuf_size2_6_sram[0]:7 0.0004459317
8 mux_tree_tapbuf_size2_6_sram[0]:8 0.0001569688
9 mux_tree_tapbuf_size2_6_sram[0]:9 0.0003576665
10 mux_tree_tapbuf_size2_6_sram[0]:10 0.0001705268
11 mux_tree_tapbuf_size2_6_sram[0]:11 0.0001431372
12 mux_tree_tapbuf_size2_6_sram[0]:12 0.0001431372
13 mux_tree_tapbuf_size2_6_sram[0]:13 5.116683e-05
14 mux_tree_tapbuf_size2_6_sram[0]:14 4.93813e-05

*RES
0 mem_bottom_track_9\/sky130_fd_sc_hd__dfxbp_1_0_:Q mux_tree_tapbuf_size2_6_sram[0]:14 0.152
1 mux_tree_tapbuf_size2_6_sram[0]:4 mem_bottom_track_9\/sky130_fd_sc_hd__dfxbp_1_1_:D 0.152
2 mux_tree_tapbuf_size2_6_sram[0]:5 mux_tree_tapbuf_size2_6_sram[0]:4 0.001814732
3 mux_tree_tapbuf_size2_6_sram[0]:6 mux_tree_tapbuf_size2_6_sram[0]:5 0.0045
4 mux_tree_tapbuf_size2_6_sram[0]:8 mux_tree_tapbuf_size2_6_sram[0]:7 0.0045
5 mux_tree_tapbuf_size2_6_sram[0]:7 mux_tree_tapbuf_size2_6_sram[0]:6 0.006901786
6 mux_tree_tapbuf_size2_6_sram[0]:10 mux_tree_tapbuf_size2_6_sram[0]:9 0.002102679
7 mux_tree_tapbuf_size2_6_sram[0]:11 mux_tree_tapbuf_size2_6_sram[0]:10 0.0045
8 mux_tree_tapbuf_size2_6_sram[0]:13 mux_tree_tapbuf_size2_6_sram[0]:12 0.0045
9 mux_tree_tapbuf_size2_6_sram[0]:12 mux_tree_tapbuf_size2_6_sram[0]:11 0.002044643
10 mux_tree_tapbuf_size2_6_sram[0]:14 mux_tree_tapbuf_size2_6_sram[0]:13 0.0001657609
11 mux_tree_tapbuf_size2_6_sram[0]:3 mux_bottom_track_9\/mux_l1_in_0_:S 0.152
12 mux_tree_tapbuf_size2_6_sram[0]:9 mux_tree_tapbuf_size2_6_sram[0]:8 0.001924107
13 mux_tree_tapbuf_size2_6_sram[0]:9 mux_tree_tapbuf_size2_6_sram[0]:3 0.0001271552

*END

*D_NET mux_tree_tapbuf_size2_mem_6_ccff_tail[0] 0.0020056 //LENGTH 15.410 LUMPCC 0.0001321536 DR

*CONN
*I mem_bottom_track_9\/FTB_7__38:X O *L 0 *C 32.940 12.920
*I mem_bottom_track_25\/sky130_fd_sc_hd__dfxbp_1_0_:D I *L 0.001695 *C 42.040 17.340
*N mux_tree_tapbuf_size2_mem_6_ccff_tail[0]:2 *C 42.003 17.340
*N mux_tree_tapbuf_size2_mem_6_ccff_tail[0]:3 *C 41.445 17.340
*N mux_tree_tapbuf_size2_mem_6_ccff_tail[0]:4 *C 41.400 17.295
*N mux_tree_tapbuf_size2_mem_6_ccff_tail[0]:5 *C 41.400 12.625
*N mux_tree_tapbuf_size2_mem_6_ccff_tail[0]:6 *C 41.355 12.580
*N mux_tree_tapbuf_size2_mem_6_ccff_tail[0]:7 *C 35.420 12.580
*N mux_tree_tapbuf_size2_mem_6_ccff_tail[0]:8 *C 35.420 12.920
*N mux_tree_tapbuf_size2_mem_6_ccff_tail[0]:9 *C 32.977 12.920

*CAP
0 mem_bottom_track_9\/FTB_7__38:X 1e-06
1 mem_bottom_track_25\/sky130_fd_sc_hd__dfxbp_1_0_:D 1e-06
2 mux_tree_tapbuf_size2_mem_6_ccff_tail[0]:2 6.62438e-05
3 mux_tree_tapbuf_size2_mem_6_ccff_tail[0]:3 6.62438e-05
4 mux_tree_tapbuf_size2_mem_6_ccff_tail[0]:4 0.0002610107
5 mux_tree_tapbuf_size2_mem_6_ccff_tail[0]:5 0.0002610107
6 mux_tree_tapbuf_size2_mem_6_ccff_tail[0]:6 0.000401436
7 mux_tree_tapbuf_size2_mem_6_ccff_tail[0]:7 0.0004258118
8 mux_tree_tapbuf_size2_mem_6_ccff_tail[0]:8 0.0002070325
9 mux_tree_tapbuf_size2_mem_6_ccff_tail[0]:9 0.0001826567
10 mux_tree_tapbuf_size2_mem_6_ccff_tail[0]:6 mux_tree_tapbuf_size2_6_sram[1]:6 2.525129e-05
11 mux_tree_tapbuf_size2_mem_6_ccff_tail[0]:9 mux_tree_tapbuf_size2_6_sram[1]:4 3.875399e-05
12 mux_tree_tapbuf_size2_mem_6_ccff_tail[0]:9 mux_tree_tapbuf_size2_6_sram[1]:5 2.071537e-06
13 mux_tree_tapbuf_size2_mem_6_ccff_tail[0]:8 mux_tree_tapbuf_size2_6_sram[1]:5 3.875399e-05
14 mux_tree_tapbuf_size2_mem_6_ccff_tail[0]:8 mux_tree_tapbuf_size2_6_sram[1]:6 2.071537e-06
15 mux_tree_tapbuf_size2_mem_6_ccff_tail[0]:7 mux_tree_tapbuf_size2_6_sram[1]:5 2.525129e-05

*RES
0 mem_bottom_track_9\/FTB_7__38:X mux_tree_tapbuf_size2_mem_6_ccff_tail[0]:9 0.152
1 mux_tree_tapbuf_size2_mem_6_ccff_tail[0]:2 mem_bottom_track_25\/sky130_fd_sc_hd__dfxbp_1_0_:D 0.152
2 mux_tree_tapbuf_size2_mem_6_ccff_tail[0]:3 mux_tree_tapbuf_size2_mem_6_ccff_tail[0]:2 0.0004977679
3 mux_tree_tapbuf_size2_mem_6_ccff_tail[0]:4 mux_tree_tapbuf_size2_mem_6_ccff_tail[0]:3 0.0045
4 mux_tree_tapbuf_size2_mem_6_ccff_tail[0]:6 mux_tree_tapbuf_size2_mem_6_ccff_tail[0]:5 0.0045
5 mux_tree_tapbuf_size2_mem_6_ccff_tail[0]:5 mux_tree_tapbuf_size2_mem_6_ccff_tail[0]:4 0.004169643
6 mux_tree_tapbuf_size2_mem_6_ccff_tail[0]:9 mux_tree_tapbuf_size2_mem_6_ccff_tail[0]:8 0.002180804
7 mux_tree_tapbuf_size2_mem_6_ccff_tail[0]:8 mux_tree_tapbuf_size2_mem_6_ccff_tail[0]:7 0.0003035715
8 mux_tree_tapbuf_size2_mem_6_ccff_tail[0]:7 mux_tree_tapbuf_size2_mem_6_ccff_tail[0]:6 0.005299107

*END

*D_NET mux_right_track_24/sky130_fd_sc_hd__mux2_1_0_X[0] 0.0004945725 //LENGTH 3.825 LUMPCC 0 DR

*CONN
*I mux_right_track_24\/mux_l1_in_0_:X O *L 0 *C 66.525 25.160
*I mux_right_track_24\/mux_l2_in_0_:A1 I *L 0.00198 *C 67.720 23.460
*N mux_right_track_24/sky130_fd_sc_hd__mux2_1_0_X[0]:2 *C 67.683 23.460
*N mux_right_track_24/sky130_fd_sc_hd__mux2_1_0_X[0]:3 *C 67.205 23.460
*N mux_right_track_24/sky130_fd_sc_hd__mux2_1_0_X[0]:4 *C 67.160 23.505
*N mux_right_track_24/sky130_fd_sc_hd__mux2_1_0_X[0]:5 *C 67.160 25.115
*N mux_right_track_24/sky130_fd_sc_hd__mux2_1_0_X[0]:6 *C 67.115 25.160
*N mux_right_track_24/sky130_fd_sc_hd__mux2_1_0_X[0]:7 *C 66.562 25.160

*CAP
0 mux_right_track_24\/mux_l1_in_0_:X 1e-06
1 mux_right_track_24\/mux_l2_in_0_:A1 1e-06
2 mux_right_track_24/sky130_fd_sc_hd__mux2_1_0_X[0]:2 6.429151e-05
3 mux_right_track_24/sky130_fd_sc_hd__mux2_1_0_X[0]:3 6.429151e-05
4 mux_right_track_24/sky130_fd_sc_hd__mux2_1_0_X[0]:4 0.0001080799
5 mux_right_track_24/sky130_fd_sc_hd__mux2_1_0_X[0]:5 0.0001080799
6 mux_right_track_24/sky130_fd_sc_hd__mux2_1_0_X[0]:6 7.391485e-05
7 mux_right_track_24/sky130_fd_sc_hd__mux2_1_0_X[0]:7 7.391485e-05

*RES
0 mux_right_track_24\/mux_l1_in_0_:X mux_right_track_24/sky130_fd_sc_hd__mux2_1_0_X[0]:7 0.152
1 mux_right_track_24/sky130_fd_sc_hd__mux2_1_0_X[0]:2 mux_right_track_24\/mux_l2_in_0_:A1 0.152
2 mux_right_track_24/sky130_fd_sc_hd__mux2_1_0_X[0]:3 mux_right_track_24/sky130_fd_sc_hd__mux2_1_0_X[0]:2 0.0004263393
3 mux_right_track_24/sky130_fd_sc_hd__mux2_1_0_X[0]:4 mux_right_track_24/sky130_fd_sc_hd__mux2_1_0_X[0]:3 0.0045
4 mux_right_track_24/sky130_fd_sc_hd__mux2_1_0_X[0]:6 mux_right_track_24/sky130_fd_sc_hd__mux2_1_0_X[0]:5 0.0045
5 mux_right_track_24/sky130_fd_sc_hd__mux2_1_0_X[0]:5 mux_right_track_24/sky130_fd_sc_hd__mux2_1_0_X[0]:4 0.0014375
6 mux_right_track_24/sky130_fd_sc_hd__mux2_1_0_X[0]:7 mux_right_track_24/sky130_fd_sc_hd__mux2_1_0_X[0]:6 0.0004933036

*END

*D_NET mux_bottom_track_9/sky130_fd_sc_hd__mux2_1_1_X[0] 0.0001592553 //LENGTH 0.740 LUMPCC 0 DR

*CONN
*I mux_bottom_track_9\/mux_l2_in_0_:X O *L 0 *C 37.085 12.240
*I mux_bottom_track_9\/sky130_fd_sc_hd__buf_4_0_:A I *L 0.002576 *C 37.565 12.105
*N mux_bottom_track_9/sky130_fd_sc_hd__mux2_1_1_X[0]:2 *C 37.565 12.105
*N mux_bottom_track_9/sky130_fd_sc_hd__mux2_1_1_X[0]:3 *C 37.123 12.240

*CAP
0 mux_bottom_track_9\/mux_l2_in_0_:X 1e-06
1 mux_bottom_track_9\/sky130_fd_sc_hd__buf_4_0_:A 1e-06
2 mux_bottom_track_9/sky130_fd_sc_hd__mux2_1_1_X[0]:2 9.947792e-05
3 mux_bottom_track_9/sky130_fd_sc_hd__mux2_1_1_X[0]:3 5.777735e-05

*RES
0 mux_bottom_track_9\/mux_l2_in_0_:X mux_bottom_track_9/sky130_fd_sc_hd__mux2_1_1_X[0]:3 0.152
1 mux_bottom_track_9/sky130_fd_sc_hd__mux2_1_1_X[0]:3 mux_bottom_track_9/sky130_fd_sc_hd__mux2_1_1_X[0]:2 0.0003950893
2 mux_bottom_track_9/sky130_fd_sc_hd__mux2_1_1_X[0]:2 mux_bottom_track_9\/sky130_fd_sc_hd__buf_4_0_:A 0.152

*END

*D_NET ropt_net_132 0.001501208 //LENGTH 9.995 LUMPCC 0.0005155984 DR

*CONN
*I ropt_mt_inst_690:X O *L 0 *C 61.835 8.840
*I ropt_mt_inst_724:A I *L 0.001767 *C 57.960 4.080
*N ropt_net_132:2 *C 57.998 4.080
*N ropt_net_132:3 *C 58.375 4.080
*N ropt_net_132:4 *C 58.420 4.125
*N ropt_net_132:5 *C 58.420 6.075
*N ropt_net_132:6 *C 58.465 6.120
*N ropt_net_132:7 *C 61.595 6.120
*N ropt_net_132:8 *C 61.640 6.165
*N ropt_net_132:9 *C 61.640 8.795
*N ropt_net_132:10 *C 61.640 8.840
*N ropt_net_132:11 *C 61.835 8.840

*CAP
0 ropt_mt_inst_690:X 1e-06
1 ropt_mt_inst_724:A 1e-06
2 ropt_net_132:2 5.041354e-05
3 ropt_net_132:3 5.041354e-05
4 ropt_net_132:4 9.428044e-05
5 ropt_net_132:5 9.428044e-05
6 ropt_net_132:6 0.0001662042
7 ropt_net_132:7 0.0001662042
8 ropt_net_132:8 0.0001272741
9 ropt_net_132:9 0.0001272741
10 ropt_net_132:10 5.593929e-05
11 ropt_net_132:11 5.132574e-05
12 ropt_net_132:9 chanx_right_in[7]:11 2.711265e-06
13 ropt_net_132:7 chanx_right_in[7]:9 0.000127162
14 ropt_net_132:8 chanx_right_in[7]:10 2.711265e-06
15 ropt_net_132:6 chanx_right_in[7]:8 0.000127162
16 ropt_net_132:5 chany_bottom_in[12]:10 6.106296e-05
17 ropt_net_132:4 chany_bottom_in[12] 6.106296e-05
18 ropt_net_132:9 chany_bottom_in[14]:8 6.686296e-05
19 ropt_net_132:8 chany_bottom_in[14]:9 6.686296e-05

*RES
0 ropt_mt_inst_690:X ropt_net_132:11 0.152
1 ropt_net_132:11 ropt_net_132:10 0.0001059783
2 ropt_net_132:10 ropt_net_132:9 0.0045
3 ropt_net_132:9 ropt_net_132:8 0.002348214
4 ropt_net_132:7 ropt_net_132:6 0.002794643
5 ropt_net_132:8 ropt_net_132:7 0.0045
6 ropt_net_132:6 ropt_net_132:5 0.0045
7 ropt_net_132:5 ropt_net_132:4 0.001741071
8 ropt_net_132:3 ropt_net_132:2 0.0003370536
9 ropt_net_132:4 ropt_net_132:3 0.0045
10 ropt_net_132:2 ropt_mt_inst_724:A 0.152

*END

*D_NET ropt_net_153 0.0005190456 //LENGTH 3.925 LUMPCC 0.0001409877 DR

*CONN
*I ropt_mt_inst_701:X O *L 0 *C 74.060 66.980
*I ropt_mt_inst_746:A I *L 0.001766 *C 73.140 69.360
*N ropt_net_153:2 *C 73.178 69.360
*N ropt_net_153:3 *C 74.015 69.360
*N ropt_net_153:4 *C 74.060 69.315
*N ropt_net_153:5 *C 74.060 67.025
*N ropt_net_153:6 *C 74.060 66.980

*CAP
0 ropt_mt_inst_701:X 1e-06
1 ropt_mt_inst_746:A 1e-06
2 ropt_net_153:2 7.094297e-05
3 ropt_net_153:3 7.094297e-05
4 ropt_net_153:4 0.0001021011
5 ropt_net_153:5 0.0001021011
6 ropt_net_153:6 2.996985e-05
7 ropt_net_153:4 right_top_grid_pin_1_[0]:19 7.049383e-05
8 ropt_net_153:5 right_top_grid_pin_1_[0]:18 7.049383e-05

*RES
0 ropt_mt_inst_701:X ropt_net_153:6 0.152
1 ropt_net_153:2 ropt_mt_inst_746:A 0.152
2 ropt_net_153:3 ropt_net_153:2 0.0007477679
3 ropt_net_153:4 ropt_net_153:3 0.0045
4 ropt_net_153:6 ropt_net_153:5 0.0045
5 ropt_net_153:5 ropt_net_153:4 0.002044643

*END
