*SPEF "1481-1998"
*DESIGN "sb_1__0_"
*DATE "Mon Oct 26 23:03:32 2020"
*
*
*
*
*DIVIDER /
*DELIMITER :
*T_UNIT 1 NS
*C_UNIT 1 PF
*R_UNIT 1 KOHM
*L_UNIT 1 HENRY

// XY_UNIT 1 UM
// PARASITIC_TECH nominal at 25.000 degree

*PORTS
prog_clk[0] I *C 30.820 102.680
chany_top_in[0] I *C 80.500 102.680
chany_top_in[1] I *C 57.500 102.680
chany_top_in[2] I *C 82.340 102.680
chany_top_in[3] I *C 74.060 102.680
chany_top_in[4] I *C 51.980 102.680
chany_top_in[5] I *C 60.260 102.680
chany_top_in[6] I *C 74.980 102.680
chany_top_in[7] I *C 66.700 102.680
chany_top_in[8] I *C 72.220 102.680
chany_top_in[9] I *C 67.620 102.680
chany_top_in[10] I *C 73.140 102.680
chany_top_in[11] I *C 75.900 102.680
chany_top_in[12] I *C 52.900 102.680
chany_top_in[13] I *C 63.480 102.680
chany_top_in[14] I *C 54.740 102.680
chany_top_in[15] I *C 53.820 102.680
chany_top_in[16] I *C 69.460 102.680
chany_top_in[17] I *C 81.420 102.680
chany_top_in[18] I *C 84.640 102.680
chany_top_in[19] I *C 59.340 102.680
top_left_grid_pin_34_[0] I *C 33.120 102.680
top_left_grid_pin_35_[0] I *C 33.120 102.680
top_left_grid_pin_36_[0] I *C 29.210 99.960
top_left_grid_pin_37_[0] I *C 32.200 102.680
top_left_grid_pin_38_[0] I *C 29.210 97.920
top_left_grid_pin_39_[0] I *C 29.210 96.560
top_left_grid_pin_40_[0] I *C 29.210 95.200
top_left_grid_pin_41_[0] I *C 29.210 90.440
chanx_right_in[0] I *C 140.990 46.240
chanx_right_in[1] I *C 140.990 16.320
chanx_right_in[2] I *C 140.990 12.240
chanx_right_in[3] I *C 140.990 8.160
chanx_right_in[4] I *C 140.990 13.600
chanx_right_in[5] I *C 140.990 9.520
chanx_right_in[6] I *C 140.990 31.280
chanx_right_in[7] I *C 140.990 47.600
chanx_right_in[8] I *C 140.990 14.960
chanx_right_in[9] I *C 140.990 72.080
chanx_right_in[10] I *C 140.990 25.840
chanx_right_in[11] I *C 140.990 29.920
chanx_right_in[12] I *C 140.990 19.040
chanx_right_in[13] I *C 140.990 44.880
chanx_right_in[14] I *C 140.990 17.680
chanx_right_in[15] I *C 140.990 42.160
chanx_right_in[16] I *C 140.990 4.080
chanx_right_in[17] I *C 140.990 63.920
chanx_right_in[18] I *C 140.990 50.320
chanx_right_in[19] I *C 140.990 58.480
right_top_grid_pin_42_[0] I *C 138.460 75.480
right_top_grid_pin_43_[0] I *C 112.470 99.280
right_top_grid_pin_44_[0] I *C 139.380 75.480
right_top_grid_pin_45_[0] I *C 137.540 75.480
right_top_grid_pin_46_[0] I *C 112.470 91.800
right_top_grid_pin_47_[0] I *C 112.470 90.440
right_top_grid_pin_48_[0] I *C 135.700 75.480
right_top_grid_pin_49_[0] I *C 136.620 75.480
right_bottom_grid_pin_1_[0] I *C 139.380 0.680
chanx_left_in[0] I *C 0.690 67.320
chanx_left_in[1] I *C 0.690 54.400
chanx_left_in[2] I *C 0.690 51.680
chanx_left_in[3] I *C 0.690 53.040
chanx_left_in[4] I *C 0.690 62.560
chanx_left_in[5] I *C 0.690 50.320
chanx_left_in[6] I *C 0.690 47.600
chanx_left_in[7] I *C 0.690 70.720
chanx_left_in[8] I *C 0.690 32.640
chanx_left_in[9] I *C 0.690 72.080
chanx_left_in[10] I *C 0.690 57.120
chanx_left_in[11] I *C 0.690 69.360
chanx_left_in[12] I *C 0.690 36.720
chanx_left_in[13] I *C 0.690 44.880
chanx_left_in[14] I *C 0.690 6.800
chanx_left_in[15] I *C 0.690 42.160
chanx_left_in[16] I *C 0.690 28.560
chanx_left_in[17] I *C 0.690 19.040
chanx_left_in[18] I *C 0.690 5.440
chanx_left_in[19] I *C 0.690 4.080
left_top_grid_pin_42_[0] I *C 7.360 75.480
left_top_grid_pin_43_[0] I *C 29.210 91.800
left_top_grid_pin_44_[0] I *C 4.140 75.480
left_top_grid_pin_45_[0] I *C 5.060 75.480
left_top_grid_pin_46_[0] I *C 2.300 75.480
left_top_grid_pin_47_[0] I *C 3.220 75.480
left_top_grid_pin_48_[0] I *C 11.500 75.480
left_top_grid_pin_49_[0] I *C 10.580 75.480
left_bottom_grid_pin_1_[0] I *C 2.300 0.680
ccff_head[0] I *C 138.460 0.680
chany_top_out[0] O *C 76.820 102.680
chany_top_out[1] O *C 61.180 102.680
chany_top_out[2] O *C 77.740 102.680
chany_top_out[3] O *C 71.300 102.680
chany_top_out[4] O *C 98.900 102.680
chany_top_out[5] O *C 83.720 102.680
chany_top_out[6] O *C 70.380 102.680
chany_top_out[7] O *C 50.140 102.680
chany_top_out[8] O *C 68.540 102.680
chany_top_out[9] O *C 58.420 102.680
chany_top_out[10] O *C 96.600 102.680
chany_top_out[11] O *C 93.840 102.680
chany_top_out[12] O *C 79.580 102.680
chany_top_out[13] O *C 64.400 102.680
chany_top_out[14] O *C 97.520 102.680
chany_top_out[15] O *C 51.060 102.680
chany_top_out[16] O *C 86.940 102.680
chany_top_out[17] O *C 62.100 102.680
chany_top_out[18] O *C 95.680 102.680
chany_top_out[19] O *C 78.660 102.680
chanx_right_out[0] O *C 140.990 59.840
chanx_right_out[1] O *C 140.990 66.640
chanx_right_out[2] O *C 140.990 6.800
chanx_right_out[3] O *C 140.990 68.000
chanx_right_out[4] O *C 140.990 35.360
chanx_right_out[5] O *C 140.990 57.120
chanx_right_out[6] O *C 140.990 28.560
chanx_right_out[7] O *C 140.990 51.680
chanx_right_out[8] O *C 140.990 34.000
chanx_right_out[9] O *C 140.990 40.800
chanx_right_out[10] O *C 140.990 24.480
chanx_right_out[11] O *C 140.990 55.760
chanx_right_out[12] O *C 140.990 69.360
chanx_right_out[13] O *C 140.990 61.200
chanx_right_out[14] O *C 140.990 23.120
chanx_right_out[15] O *C 140.990 39.440
chanx_right_out[16] O *C 140.990 36.720
chanx_right_out[17] O *C 140.990 62.560
chanx_right_out[18] O *C 140.990 20.400
chanx_right_out[19] O *C 140.990 53.040
chanx_left_out[0] O *C 0.690 27.200
chanx_left_out[1] O *C 0.690 64.600
chanx_left_out[2] O *C 0.690 15.640
chanx_left_out[3] O *C 0.690 59.840
chanx_left_out[4] O *C 0.690 11.560
chanx_left_out[5] O *C 0.690 61.200
chanx_left_out[6] O *C 0.690 25.840
chanx_left_out[7] O *C 0.690 48.960
chanx_left_out[8] O *C 0.690 21.760
chanx_left_out[9] O *C 0.690 34.000
chanx_left_out[10] O *C 0.690 20.400
chanx_left_out[11] O *C 0.690 38.080
chanx_left_out[12] O *C 0.690 23.120
chanx_left_out[13] O *C 0.690 65.960
chanx_left_out[14] O *C 0.690 17.680
chanx_left_out[15] O *C 0.690 39.440
chanx_left_out[16] O *C 0.690 31.280
chanx_left_out[17] O *C 0.690 43.520
chanx_left_out[18] O *C 0.690 10.200
chanx_left_out[19] O *C 0.690 58.480
ccff_tail[0] O *C 0.690 55.760
VDD I *C 70.840 51.680
VSS I *C 70.840 51.680

*D_NET top_left_grid_pin_35_[0] 0.02097017 //LENGTH 145.055 LUMPCC 0.00650173 DR

*CONN
*P top_left_grid_pin_35_[0] I *L 0.29796 *C 33.120 102.075
*I FTB_1__0:A I *L 0.001776 *C 52.900 99.280
*I mux_top_track_2\/mux_l1_in_0_:A1 I *L 0.00198 *C 49.320 88.740
*I mux_top_track_6\/mux_l1_in_0_:A1 I *L 0.00198 *C 79.120 52.700
*I mux_top_track_10\/mux_l1_in_0_:A1 I *L 0.00198 *C 115.000 56.100
*N top_left_grid_pin_35_[0]:5 *C 114.963 56.100
*N top_left_grid_pin_35_[0]:6 *C 112.285 56.100
*N top_left_grid_pin_35_[0]:7 *C 112.240 56.100
*N top_left_grid_pin_35_[0]:8 *C 112.240 56.440
*N top_left_grid_pin_35_[0]:9 *C 112.233 56.440
*N top_left_grid_pin_35_[0]:10 *C 79.120 52.700
*N top_left_grid_pin_35_[0]:11 *C 79.120 52.745
*N top_left_grid_pin_35_[0]:12 *C 79.120 56.383
*N top_left_grid_pin_35_[0]:13 *C 79.120 56.440
*N top_left_grid_pin_35_[0]:14 *C 78.220 56.440
*N top_left_grid_pin_35_[0]:15 *C 78.200 56.448
*N top_left_grid_pin_35_[0]:16 *C 78.200 88.392
*N top_left_grid_pin_35_[0]:17 *C 78.180 88.400
*N top_left_grid_pin_35_[0]:18 *C 49.220 88.740
*N top_left_grid_pin_35_[0]:19 *C 49.220 88.740
*N top_left_grid_pin_35_[0]:20 *C 49.220 88.400
*N top_left_grid_pin_35_[0]:21 *C 49.227 88.400
*N top_left_grid_pin_35_[0]:22 *C 48.775 88.400
*N top_left_grid_pin_35_[0]:23 *C 48.760 88.407
*N top_left_grid_pin_35_[0]:24 *C 52.900 99.280
*N top_left_grid_pin_35_[0]:25 *C 52.900 99.235
*N top_left_grid_pin_35_[0]:26 *C 52.900 97.978
*N top_left_grid_pin_35_[0]:27 *C 52.893 97.920
*N top_left_grid_pin_35_[0]:28 *C 48.780 97.920
*N top_left_grid_pin_35_[0]:29 *C 48.760 97.920
*N top_left_grid_pin_35_[0]:30 *C 48.760 101.312
*N top_left_grid_pin_35_[0]:31 *C 48.760 101.325
*N top_left_grid_pin_35_[0]:32 *C 48.760 102.000
*N top_left_grid_pin_35_[0]:33 *C 32.200 102.000
*N top_left_grid_pin_35_[0]:34 *C 32.200 101.325
*N top_left_grid_pin_35_[0]:35 *C 32.208 101.320
*N top_left_grid_pin_35_[0]:36 *C 33.120 101.320

*CAP
0 top_left_grid_pin_35_[0] 7.524232e-05
1 FTB_1__0:A 1e-06
2 mux_top_track_2\/mux_l1_in_0_:A1 1e-06
3 mux_top_track_6\/mux_l1_in_0_:A1 1e-06
4 mux_top_track_10\/mux_l1_in_0_:A1 1e-06
5 top_left_grid_pin_35_[0]:5 0.0001789104
6 top_left_grid_pin_35_[0]:6 0.0001789104
7 top_left_grid_pin_35_[0]:7 4.980993e-05
8 top_left_grid_pin_35_[0]:8 5.367423e-05
9 top_left_grid_pin_35_[0]:9 0.001591533
10 top_left_grid_pin_35_[0]:10 3.252207e-05
11 top_left_grid_pin_35_[0]:11 0.000157902
12 top_left_grid_pin_35_[0]:12 0.0001579019
13 top_left_grid_pin_35_[0]:13 0.001599739
14 top_left_grid_pin_35_[0]:14 8.205388e-06
15 top_left_grid_pin_35_[0]:15 0.000976161
16 top_left_grid_pin_35_[0]:16 0.000976161
17 top_left_grid_pin_35_[0]:17 0.002001178
18 top_left_grid_pin_35_[0]:18 3.648206e-05
19 top_left_grid_pin_35_[0]:19 4.962483e-05
20 top_left_grid_pin_35_[0]:20 5.32877e-05
21 top_left_grid_pin_35_[0]:21 0.002057325
22 top_left_grid_pin_35_[0]:22 5.614782e-05
23 top_left_grid_pin_35_[0]:23 0.0005780382
24 top_left_grid_pin_35_[0]:24 3.621468e-05
25 top_left_grid_pin_35_[0]:25 9.553787e-05
26 top_left_grid_pin_35_[0]:26 9.553787e-05
27 top_left_grid_pin_35_[0]:27 0.0002666786
28 top_left_grid_pin_35_[0]:28 0.0002666786
29 top_left_grid_pin_35_[0]:29 0.0008079725
30 top_left_grid_pin_35_[0]:30 0.0002299344
31 top_left_grid_pin_35_[0]:31 5.217136e-05
32 top_left_grid_pin_35_[0]:32 0.0007486833
33 top_left_grid_pin_35_[0]:33 0.0007492446
34 top_left_grid_pin_35_[0]:34 5.273278e-05
35 top_left_grid_pin_35_[0]:35 5.95268e-05
36 top_left_grid_pin_35_[0]:36 0.0001347691
37 top_left_grid_pin_35_[0]:13 chanx_right_in[9]:24 0.000283432
38 top_left_grid_pin_35_[0]:5 chanx_right_in[9]:25 9.964938e-06
39 top_left_grid_pin_35_[0]:6 chanx_right_in[9]:26 9.964938e-06
40 top_left_grid_pin_35_[0]:9 chanx_right_in[9]:29 0.000283432
41 top_left_grid_pin_35_[0]:28 prog_clk[0]:360 5.533719e-05
42 top_left_grid_pin_35_[0]:26 prog_clk[0]:354 4.570852e-07
43 top_left_grid_pin_35_[0]:27 prog_clk[0]:356 5.533719e-05
44 top_left_grid_pin_35_[0]:25 prog_clk[0]:355 4.570852e-07
45 top_left_grid_pin_35_[0]:11 prog_clk[0]:292 8.262489e-05
46 top_left_grid_pin_35_[0]:11 prog_clk[0]:298 2.174178e-05
47 top_left_grid_pin_35_[0]:12 prog_clk[0]:304 2.174178e-05
48 top_left_grid_pin_35_[0]:12 prog_clk[0]:298 8.262489e-05
49 top_left_grid_pin_35_[0]:13 prog_clk[0]:275 4.772648e-06
50 top_left_grid_pin_35_[0]:13 prog_clk[0]:297 0.0001575478
51 top_left_grid_pin_35_[0]:13 prog_clk[0]:296 3.38114e-05
52 top_left_grid_pin_35_[0]:7 prog_clk[0]:115 5.51546e-07
53 top_left_grid_pin_35_[0]:8 prog_clk[0]:114 5.51546e-07
54 top_left_grid_pin_35_[0]:9 prog_clk[0]:274 4.772648e-06
55 top_left_grid_pin_35_[0]:9 prog_clk[0]:296 0.0001575478
56 top_left_grid_pin_35_[0]:21 prog_clk[0]:177 1.674677e-06
57 top_left_grid_pin_35_[0]:21 prog_clk[0]:348 6.044598e-08
58 top_left_grid_pin_35_[0]:21 prog_clk[0]:176 1.091731e-05
59 top_left_grid_pin_35_[0]:21 prog_clk[0]:183 8.346397e-07
60 top_left_grid_pin_35_[0]:34 prog_clk[0]:596 6.092859e-06
61 top_left_grid_pin_35_[0]:14 prog_clk[0]:297 3.38114e-05
62 top_left_grid_pin_35_[0]:15 prog_clk[0]:306 1.771615e-05
63 top_left_grid_pin_35_[0]:17 prog_clk[0]:182 8.346397e-07
64 top_left_grid_pin_35_[0]:17 prog_clk[0]:347 6.044598e-08
65 top_left_grid_pin_35_[0]:17 prog_clk[0]:171 1.091731e-05
66 top_left_grid_pin_35_[0]:17 prog_clk[0]:176 1.674677e-06
67 top_left_grid_pin_35_[0]:16 prog_clk[0]:283 1.771615e-05
68 top_left_grid_pin_35_[0]:33 prog_clk[0] 6.092859e-06
69 top_left_grid_pin_35_[0]:33 prog_clk[0]:595 1.438907e-06
70 top_left_grid_pin_35_[0]:33 prog_clk[0]:594 7.624363e-06
71 top_left_grid_pin_35_[0]:33 prog_clk[0]:360 3.325795e-06
72 top_left_grid_pin_35_[0]:32 prog_clk[0]:594 1.438907e-06
73 top_left_grid_pin_35_[0]:32 prog_clk[0]:360 7.624363e-06
74 top_left_grid_pin_35_[0]:32 prog_clk[0]:356 3.325795e-06
75 top_left_grid_pin_35_[0]:13 chany_top_in[16]:11 0.0002879217
76 top_left_grid_pin_35_[0]:13 chany_top_in[16]:10 1.074806e-05
77 top_left_grid_pin_35_[0]:9 chany_top_in[16]:10 0.0002879217
78 top_left_grid_pin_35_[0]:14 chany_top_in[16]:11 1.074806e-05
79 top_left_grid_pin_35_[0]:28 top_left_grid_pin_34_[0]:40 1.595555e-05
80 top_left_grid_pin_35_[0]:27 top_left_grid_pin_34_[0]:39 1.595555e-05
81 top_left_grid_pin_35_[0]:31 top_left_grid_pin_34_[0]:40 1.369984e-06
82 top_left_grid_pin_35_[0]:35 top_left_grid_pin_34_[0]:42 1.481916e-05
83 top_left_grid_pin_35_[0]:33 top_left_grid_pin_34_[0]:42 0.0006415492
84 top_left_grid_pin_35_[0]:33 top_left_grid_pin_34_[0]:40 1.087396e-06
85 top_left_grid_pin_35_[0]:32 top_left_grid_pin_34_[0]:41 0.0006429192
86 top_left_grid_pin_35_[0]:32 top_left_grid_pin_34_[0]:39 1.087396e-06
87 top_left_grid_pin_35_[0]:36 top_left_grid_pin_34_[0]:41 1.481916e-05
88 top_left_grid_pin_35_[0]:21 mux_top_track_2/sky130_fd_sc_hd__mux2_1_0_X[0]:6 0.0002732823
89 top_left_grid_pin_35_[0]:17 mux_top_track_2/sky130_fd_sc_hd__mux2_1_0_X[0]:5 0.0002732823
90 top_left_grid_pin_35_[0]:13 mux_top_track_4/sky130_fd_sc_hd__mux2_1_6_X[0]:10 6.004905e-05
91 top_left_grid_pin_35_[0]:13 mux_top_track_4/sky130_fd_sc_hd__mux2_1_6_X[0]:9 5.869659e-05
92 top_left_grid_pin_35_[0]:9 mux_top_track_4/sky130_fd_sc_hd__mux2_1_6_X[0]:9 6.004905e-05
93 top_left_grid_pin_35_[0]:14 mux_top_track_4/sky130_fd_sc_hd__mux2_1_6_X[0]:10 5.869659e-05
94 top_left_grid_pin_35_[0]:15 mux_top_track_4/sky130_fd_sc_hd__mux2_1_6_X[0]:8 0.0006203783
95 top_left_grid_pin_35_[0]:16 mux_top_track_4/sky130_fd_sc_hd__mux2_1_6_X[0]:7 0.0006203783
96 top_left_grid_pin_35_[0]:15 mux_top_track_20/sky130_fd_sc_hd__mux2_1_2_X[0]:10 0.0005650811
97 top_left_grid_pin_35_[0]:16 mux_top_track_20/sky130_fd_sc_hd__mux2_1_2_X[0]:9 0.0005650811

*RES
0 top_left_grid_pin_35_[0] top_left_grid_pin_35_[0]:36 0.0001182833
1 top_left_grid_pin_35_[0]:28 top_left_grid_pin_35_[0]:27 0.0006442916
2 top_left_grid_pin_35_[0]:29 top_left_grid_pin_35_[0]:28 0.00341
3 top_left_grid_pin_35_[0]:29 top_left_grid_pin_35_[0]:23 0.001490292
4 top_left_grid_pin_35_[0]:26 top_left_grid_pin_35_[0]:25 0.001122768
5 top_left_grid_pin_35_[0]:27 top_left_grid_pin_35_[0]:26 0.00341
6 top_left_grid_pin_35_[0]:24 FTB_1__0:A 0.152
7 top_left_grid_pin_35_[0]:25 top_left_grid_pin_35_[0]:24 0.0045
8 top_left_grid_pin_35_[0]:10 mux_top_track_6\/mux_l1_in_0_:A1 0.152
9 top_left_grid_pin_35_[0]:11 top_left_grid_pin_35_[0]:10 0.0045
10 top_left_grid_pin_35_[0]:12 top_left_grid_pin_35_[0]:11 0.003247768
11 top_left_grid_pin_35_[0]:13 top_left_grid_pin_35_[0]:12 0.00341
12 top_left_grid_pin_35_[0]:13 top_left_grid_pin_35_[0]:9 0.005187625
13 top_left_grid_pin_35_[0]:5 mux_top_track_10\/mux_l1_in_0_:A1 0.152
14 top_left_grid_pin_35_[0]:6 top_left_grid_pin_35_[0]:5 0.002390625
15 top_left_grid_pin_35_[0]:7 top_left_grid_pin_35_[0]:6 0.0045
16 top_left_grid_pin_35_[0]:8 top_left_grid_pin_35_[0]:7 0.0001634615
17 top_left_grid_pin_35_[0]:9 top_left_grid_pin_35_[0]:8 0.00341
18 top_left_grid_pin_35_[0]:20 top_left_grid_pin_35_[0]:19 0.0001634615
19 top_left_grid_pin_35_[0]:21 top_left_grid_pin_35_[0]:20 0.00341
20 top_left_grid_pin_35_[0]:21 top_left_grid_pin_35_[0]:17 0.004535892
21 top_left_grid_pin_35_[0]:18 mux_top_track_2\/mux_l1_in_0_:A1 0.152
22 top_left_grid_pin_35_[0]:19 top_left_grid_pin_35_[0]:18 0.0045
23 top_left_grid_pin_35_[0]:22 top_left_grid_pin_35_[0]:21 6.646094e-05
24 top_left_grid_pin_35_[0]:23 top_left_grid_pin_35_[0]:22 0.00341
25 top_left_grid_pin_35_[0]:31 top_left_grid_pin_35_[0]:30 0.00341
26 top_left_grid_pin_35_[0]:30 top_left_grid_pin_35_[0]:29 0.0005314916
27 top_left_grid_pin_35_[0]:34 top_left_grid_pin_35_[0]:33 0.00010575
28 top_left_grid_pin_35_[0]:35 top_left_grid_pin_35_[0]:34 0.00341
29 top_left_grid_pin_35_[0]:14 top_left_grid_pin_35_[0]:13 0.000141
30 top_left_grid_pin_35_[0]:15 top_left_grid_pin_35_[0]:14 0.00341
31 top_left_grid_pin_35_[0]:17 top_left_grid_pin_35_[0]:16 0.00341
32 top_left_grid_pin_35_[0]:16 top_left_grid_pin_35_[0]:15 0.005004716
33 top_left_grid_pin_35_[0]:33 top_left_grid_pin_35_[0]:32 0.0025944
34 top_left_grid_pin_35_[0]:32 top_left_grid_pin_35_[0]:31 0.00010575
35 top_left_grid_pin_35_[0]:36 top_left_grid_pin_35_[0]:35 0.0001429583

*END

*D_NET chanx_left_in[6] 0.02399241 //LENGTH 145.665 LUMPCC 0.0124776 DR

*CONN
*P chanx_left_in[6] I *L 0.29796 *C 1.230 47.600
*I mux_top_track_6\/mux_l1_in_3_:A1 I *L 0.00198 *C 84.640 45.220
*I mux_right_track_8\/mux_l2_in_2_:A0 I *L 0.001631 *C 131.850 47.940
*I FTB_18__17:A I *L 0.001767 *C 134.780 47.600
*N chanx_left_in[6]:4 *C 134.743 47.600
*N chanx_left_in[6]:5 *C 131.850 47.940
*N chanx_left_in[6]:6 *C 132.020 47.600
*N chanx_left_in[6]:7 *C 132.020 47.555
*N chanx_left_in[6]:8 *C 132.020 43.578
*N chanx_left_in[6]:9 *C 132.013 43.520
*N chanx_left_in[6]:10 *C 90.168 43.520
*N chanx_left_in[6]:11 *C 90.160 43.578
*N chanx_left_in[6]:12 *C 90.160 45.515
*N chanx_left_in[6]:13 *C 90.115 45.560
*N chanx_left_in[6]:14 *C 84.678 45.220
*N chanx_left_in[6]:15 *C 85.100 45.220
*N chanx_left_in[6]:16 *C 85.100 45.560
*N chanx_left_in[6]:17 *C 85.100 45.605
*N chanx_left_in[6]:18 *C 85.100 47.543
*N chanx_left_in[6]:19 *C 85.093 47.600
*N chanx_left_in[6]:20 *C 51.230 47.600

*CAP
0 chanx_left_in[6] 0.001863348
1 mux_top_track_6\/mux_l1_in_3_:A1 1e-06
2 mux_right_track_8\/mux_l2_in_2_:A0 1e-06
3 FTB_18__17:A 1e-06
4 chanx_left_in[6]:4 0.0001947296
5 chanx_left_in[6]:5 6.636619e-05
6 chanx_left_in[6]:6 0.0002303129
7 chanx_left_in[6]:7 0.0003283384
8 chanx_left_in[6]:8 0.0003283384
9 chanx_left_in[6]:9 0.001399534
10 chanx_left_in[6]:10 0.001399534
11 chanx_left_in[6]:11 0.0001230331
12 chanx_left_in[6]:12 0.0001230331
13 chanx_left_in[6]:13 0.0003606009
14 chanx_left_in[6]:14 4.679161e-05
15 chanx_left_in[6]:15 8.203692e-05
16 chanx_left_in[6]:16 0.0003958462
17 chanx_left_in[6]:17 0.0001438107
18 chanx_left_in[6]:18 0.0001438107
19 chanx_left_in[6]:19 0.001209499
20 chanx_left_in[6]:20 0.003072846
21 chanx_left_in[6] chanx_right_in[5]:16 3.277589e-05
22 chanx_left_in[6] chanx_right_in[5]:21 7.723665e-05
23 chanx_left_in[6]:19 chanx_right_in[5]:25 0.0002839712
24 chanx_left_in[6]:19 chanx_right_in[5]:26 3.2326e-06
25 chanx_left_in[6]:20 chanx_right_in[5]:21 0.0003167471
26 chanx_left_in[6]:20 chanx_right_in[5]:25 8.046925e-05
27 chanx_left_in[6]:9 chanx_right_in[13] 0.0009026685
28 chanx_left_in[6]:10 chanx_right_in[13]:37 0.0009026685
29 chanx_left_in[6]:19 chanx_right_in[13]:34 2.738444e-06
30 chanx_left_in[6]:20 chanx_right_in[13]:33 2.738444e-06
31 chanx_left_in[6] chanx_right_in[14]:14 0.001661054
32 chanx_left_in[6]:19 chanx_right_in[14]:15 0.000770913
33 chanx_left_in[6]:20 chanx_right_in[14]:14 0.000770913
34 chanx_left_in[6]:20 chanx_right_in[14]:15 0.001661054
35 chanx_left_in[6] chanx_left_in[5] 9.756939e-06
36 chanx_left_in[6] chanx_left_in[5]:29 0.0002107767
37 chanx_left_in[6]:9 chanx_left_in[5]:23 3.272557e-05
38 chanx_left_in[6]:10 chanx_left_in[5]:27 3.272557e-05
39 chanx_left_in[6]:19 chanx_left_in[5]:23 2.480864e-05
40 chanx_left_in[6]:19 chanx_left_in[5]:27 7.351846e-06
41 chanx_left_in[6]:20 chanx_left_in[5]:27 2.480864e-05
42 chanx_left_in[6]:20 chanx_left_in[5]:28 0.0002181286
43 chanx_left_in[6]:20 chanx_left_in[5]:32 9.756939e-06
44 chanx_left_in[6]:9 chanx_left_in[14]:8 0.0002067697
45 chanx_left_in[6]:9 chanx_left_in[14]:14 0.0002177194
46 chanx_left_in[6]:10 chanx_left_in[14]:15 0.0002177194
47 chanx_left_in[6]:10 chanx_left_in[14]:14 0.0002067697
48 chanx_left_in[6]:9 top_left_grid_pin_34_[0]:10 7.551476e-05
49 chanx_left_in[6]:10 top_left_grid_pin_34_[0]:11 7.551476e-05
50 chanx_left_in[6]:17 top_left_grid_pin_34_[0]:12 5.641701e-07
51 chanx_left_in[6]:18 top_left_grid_pin_34_[0]:13 5.641701e-07
52 chanx_left_in[6]:19 top_left_grid_pin_34_[0]:14 0.0001376853
53 chanx_left_in[6]:19 top_left_grid_pin_34_[0]:20 0.0005318035
54 chanx_left_in[6]:20 top_left_grid_pin_34_[0]:21 0.0005318035
55 chanx_left_in[6]:20 top_left_grid_pin_34_[0]:19 0.0001376853
56 chanx_left_in[6]:19 chanx_right_in[7]:7 0.0003872563
57 chanx_left_in[6]:20 chanx_right_in[7]:6 0.0003872563
58 chanx_left_in[6] left_top_grid_pin_48_[0]:11 0.0004224472
59 chanx_left_in[6]:20 left_top_grid_pin_48_[0]:10 0.0004224472
60 chanx_left_in[6]:11 mux_top_track_6/sky130_fd_sc_hd__mux2_1_2_X[0]:5 1.023335e-05
61 chanx_left_in[6]:13 mux_top_track_6/sky130_fd_sc_hd__mux2_1_2_X[0]:3 3.118456e-05
62 chanx_left_in[6]:12 mux_top_track_6/sky130_fd_sc_hd__mux2_1_2_X[0]:4 1.023335e-05
63 chanx_left_in[6]:16 mux_top_track_6/sky130_fd_sc_hd__mux2_1_2_X[0]:2 3.118456e-05
64 chanx_left_in[6] ropt_net_141:6 0.0001976113
65 chanx_left_in[6]:20 ropt_net_141:7 0.0001976113

*RES
0 chanx_left_in[6] chanx_left_in[6]:20 0.007833333
1 chanx_left_in[6]:14 mux_top_track_6\/mux_l1_in_3_:A1 0.152
2 chanx_left_in[6]:6 chanx_left_in[6]:5 0.0001847826
3 chanx_left_in[6]:6 chanx_left_in[6]:4 0.002430804
4 chanx_left_in[6]:7 chanx_left_in[6]:6 0.0045
5 chanx_left_in[6]:8 chanx_left_in[6]:7 0.003551339
6 chanx_left_in[6]:9 chanx_left_in[6]:8 0.00341
7 chanx_left_in[6]:11 chanx_left_in[6]:10 0.00341
8 chanx_left_in[6]:10 chanx_left_in[6]:9 0.006555717
9 chanx_left_in[6]:13 chanx_left_in[6]:12 0.0045
10 chanx_left_in[6]:12 chanx_left_in[6]:11 0.001729911
11 chanx_left_in[6]:16 chanx_left_in[6]:15 0.0003035715
12 chanx_left_in[6]:16 chanx_left_in[6]:13 0.004477679
13 chanx_left_in[6]:17 chanx_left_in[6]:16 0.0045
14 chanx_left_in[6]:18 chanx_left_in[6]:17 0.001729911
15 chanx_left_in[6]:19 chanx_left_in[6]:18 0.00341
16 chanx_left_in[6]:4 FTB_18__17:A 0.152
17 chanx_left_in[6]:5 mux_right_track_8\/mux_l2_in_2_:A0 0.152
18 chanx_left_in[6]:15 chanx_left_in[6]:14 0.0003772322
19 chanx_left_in[6]:20 chanx_left_in[6]:19 0.005305124

*END

*D_NET chanx_left_in[14] 0.02193801 //LENGTH 177.785 LUMPCC 0.007013658 DR

*CONN
*P chanx_left_in[14] I *L 0.29796 *C 1.230 6.800
*I mux_top_track_18\/mux_l1_in_1_:A1 I *L 0.00198 *C 62.005 39.780
*I mux_right_track_4\/mux_l1_in_6_:A0 I *L 0.001631 *C 112.120 49.980
*I FTB_24__23:A I *L 0.001776 *C 130.180 42.160
*N chanx_left_in[14]:4 *C 130.218 42.160
*N chanx_left_in[14]:5 *C 130.595 42.160
*N chanx_left_in[14]:6 *C 130.640 42.115
*N chanx_left_in[14]:7 *C 130.640 41.538
*N chanx_left_in[14]:8 *C 130.632 41.480
*N chanx_left_in[14]:9 *C 112.120 49.980
*N chanx_left_in[14]:10 *C 112.240 50.320
*N chanx_left_in[14]:11 *C 112.655 50.320
*N chanx_left_in[14]:12 *C 112.700 50.275
*N chanx_left_in[14]:13 *C 112.700 41.538
*N chanx_left_in[14]:14 *C 112.700 41.480
*N chanx_left_in[14]:15 *C 63.948 41.480
*N chanx_left_in[14]:16 *C 63.940 41.422
*N chanx_left_in[14]:17 *C 63.940 39.825
*N chanx_left_in[14]:18 *C 63.895 39.780
*N chanx_left_in[14]:19 *C 62.005 39.780
*N chanx_left_in[14]:20 *C 58.465 39.780
*N chanx_left_in[14]:21 *C 58.420 39.735
*N chanx_left_in[14]:22 *C 58.420 6.857
*N chanx_left_in[14]:23 *C 58.413 6.800
*N chanx_left_in[14]:24 *C 51.230 6.800

*CAP
0 chanx_left_in[14] 0.001860675
1 mux_top_track_18\/mux_l1_in_1_:A1 1e-06
2 mux_right_track_4\/mux_l1_in_6_:A0 1e-06
3 FTB_24__23:A 1e-06
4 chanx_left_in[14]:4 4.391138e-05
5 chanx_left_in[14]:5 4.391138e-05
6 chanx_left_in[14]:6 5.480299e-05
7 chanx_left_in[14]:7 5.480299e-05
8 chanx_left_in[14]:8 0.0004804497
9 chanx_left_in[14]:9 5.28324e-05
10 chanx_left_in[14]:10 7.613537e-05
11 chanx_left_in[14]:11 4.999326e-05
12 chanx_left_in[14]:12 0.00042998
13 chanx_left_in[14]:13 0.00042998
14 chanx_left_in[14]:14 0.002645196
15 chanx_left_in[14]:15 0.002164746
16 chanx_left_in[14]:16 0.0001120764
17 chanx_left_in[14]:17 0.0001120764
18 chanx_left_in[14]:18 0.0001336709
19 chanx_left_in[14]:19 0.0004463743
20 chanx_left_in[14]:20 0.0002841664
21 chanx_left_in[14]:21 0.001471287
22 chanx_left_in[14]:22 0.001471287
23 chanx_left_in[14]:23 0.0003211655
24 chanx_left_in[14]:24 0.002181841
25 chanx_left_in[14]:8 chanx_left_in[6]:9 0.0002067697
26 chanx_left_in[14]:15 chanx_left_in[6]:10 0.0002177194
27 chanx_left_in[14]:14 chanx_left_in[6]:9 0.0002177194
28 chanx_left_in[14]:14 chanx_left_in[6]:10 0.0002067697
29 chanx_left_in[14]:8 chanx_left_in[16]:25 0.0002692774
30 chanx_left_in[14]:15 chanx_left_in[16]:26 0.0008457302
31 chanx_left_in[14]:14 chanx_left_in[16]:25 0.0008457302
32 chanx_left_in[14]:14 chanx_left_in[16]:26 0.0002692774
33 chanx_left_in[14]:8 prog_clk[0]:240 0.0003229805
34 chanx_left_in[14]:15 prog_clk[0]:241 8.628059e-05
35 chanx_left_in[14]:13 prog_clk[0]:242 1.621116e-05
36 chanx_left_in[14]:13 prog_clk[0]:236 1.986931e-06
37 chanx_left_in[14]:14 prog_clk[0]:241 0.0003229805
38 chanx_left_in[14]:14 prog_clk[0]:240 8.628059e-05
39 chanx_left_in[14]:12 prog_clk[0]:242 1.986931e-06
40 chanx_left_in[14]:12 prog_clk[0]:243 1.621116e-05
41 chanx_left_in[14]:21 prog_clk[0]:418 1.678655e-05
42 chanx_left_in[14]:21 prog_clk[0]:416 4.263904e-06
43 chanx_left_in[14]:21 prog_clk[0]:411 1.841263e-05
44 chanx_left_in[14]:22 prog_clk[0]:417 4.263904e-06
45 chanx_left_in[14]:22 prog_clk[0]:410 1.841263e-05
46 chanx_left_in[14]:22 prog_clk[0]:413 1.678655e-05
47 chanx_left_in[14]:15 top_left_grid_pin_34_[0]:11 0.0005909223
48 chanx_left_in[14]:14 top_left_grid_pin_34_[0]:10 0.0005909223
49 chanx_left_in[14] chanx_left_in[19] 0.0006069721
50 chanx_left_in[14]:21 chanx_left_in[19]:4 0.0001506353
51 chanx_left_in[14]:22 chanx_left_in[19]:5 0.0001506353
52 chanx_left_in[14]:23 chanx_left_in[19]:6 7.498956e-05
53 chanx_left_in[14]:24 chanx_left_in[19]:7 0.0006819617
54 chanx_left_in[14]:13 mux_top_track_8/sky130_fd_sc_hd__mux2_1_1_X[0]:5 7.688989e-05
55 chanx_left_in[14]:12 mux_top_track_8/sky130_fd_sc_hd__mux2_1_1_X[0]:4 7.688989e-05

*RES
0 chanx_left_in[14] chanx_left_in[14]:24 0.007833333
1 chanx_left_in[14]:7 chanx_left_in[14]:6 0.000515625
2 chanx_left_in[14]:8 chanx_left_in[14]:7 0.00341
3 chanx_left_in[14]:5 chanx_left_in[14]:4 0.0003370536
4 chanx_left_in[14]:6 chanx_left_in[14]:5 0.0045
5 chanx_left_in[14]:4 FTB_24__23:A 0.152
6 chanx_left_in[14]:16 chanx_left_in[14]:15 0.00341
7 chanx_left_in[14]:15 chanx_left_in[14]:14 0.007637891
8 chanx_left_in[14]:18 chanx_left_in[14]:17 0.0045
9 chanx_left_in[14]:17 chanx_left_in[14]:16 0.001426339
10 chanx_left_in[14]:13 chanx_left_in[14]:12 0.007801339
11 chanx_left_in[14]:14 chanx_left_in[14]:13 0.00341
12 chanx_left_in[14]:14 chanx_left_in[14]:8 0.002809425
13 chanx_left_in[14]:11 chanx_left_in[14]:10 0.0003705357
14 chanx_left_in[14]:12 chanx_left_in[14]:11 0.0045
15 chanx_left_in[14]:9 mux_right_track_4\/mux_l1_in_6_:A0 0.152
16 chanx_left_in[14]:19 mux_top_track_18\/mux_l1_in_1_:A1 0.152
17 chanx_left_in[14]:19 chanx_left_in[14]:18 0.0016875
18 chanx_left_in[14]:20 chanx_left_in[14]:19 0.003160714
19 chanx_left_in[14]:21 chanx_left_in[14]:20 0.0045
20 chanx_left_in[14]:22 chanx_left_in[14]:21 0.02935492
21 chanx_left_in[14]:23 chanx_left_in[14]:22 0.00341
22 chanx_left_in[14]:10 chanx_left_in[14]:9 0.0003035715
23 chanx_left_in[14]:24 chanx_left_in[14]:23 0.001125258

*END

*D_NET chany_top_in[2] 0.009484658 //LENGTH 72.985 LUMPCC 0.002037544 DR

*CONN
*P chany_top_in[2] I *L 0.29796 *C 82.340 102.070
*I mux_right_track_8\/mux_l1_in_0_:A1 I *L 0.00198 *C 85.200 52.700
*I mux_left_track_25\/mux_l1_in_0_:A1 I *L 0.00198 *C 62.925 52.700
*N chany_top_in[2]:3 *C 62.925 52.700
*N chany_top_in[2]:4 *C 63.020 52.700
*N chany_top_in[2]:5 *C 63.020 52.360
*N chany_top_in[2]:6 *C 63.028 52.360
*N chany_top_in[2]:7 *C 82.333 52.360
*N chany_top_in[2]:8 *C 82.340 52.360
*N chany_top_in[2]:9 *C 85.163 52.700
*N chany_top_in[2]:10 *C 82.385 52.700
*N chany_top_in[2]:11 *C 82.340 52.745

*CAP
0 chany_top_in[2] 0.002498315
1 mux_right_track_8\/mux_l1_in_0_:A1 1e-06
2 mux_left_track_25\/mux_l1_in_0_:A1 1e-06
3 chany_top_in[2]:3 3.0182e-05
4 chany_top_in[2]:4 5.737035e-05
5 chany_top_in[2]:5 6.016791e-05
6 chany_top_in[2]:6 0.0009330526
7 chany_top_in[2]:7 0.0009330526
8 chany_top_in[2]:8 5.461275e-05
9 chany_top_in[2]:9 0.0001794729
10 chany_top_in[2]:10 0.0001794729
11 chany_top_in[2]:11 0.002519415
12 chany_top_in[2]:7 chanx_right_in[13]:34 0.0003740106
13 chany_top_in[2]:6 chanx_right_in[13]:33 0.0003740106
14 chany_top_in[2]:7 top_left_grid_pin_37_[0]:11 0.0002981444
15 chany_top_in[2]:6 top_left_grid_pin_37_[0]:12 0.0002981444
16 chany_top_in[2] mux_top_track_38/sky130_fd_sc_hd__mux2_1_2_X[0]:4 0.0003466169
17 chany_top_in[2]:11 mux_top_track_38/sky130_fd_sc_hd__mux2_1_2_X[0]:5 0.0003466169

*RES
0 chany_top_in[2] chany_top_in[2]:11 0.04404018
1 chany_top_in[2]:10 chany_top_in[2]:9 0.002479911
2 chany_top_in[2]:11 chany_top_in[2]:10 0.0045
3 chany_top_in[2]:11 chany_top_in[2]:8 0.0001850962
4 chany_top_in[2]:9 mux_right_track_8\/mux_l1_in_0_:A1 0.152
5 chany_top_in[2]:8 chany_top_in[2]:7 0.00341
6 chany_top_in[2]:7 chany_top_in[2]:6 0.00302445
7 chany_top_in[2]:5 chany_top_in[2]:4 0.0001634615
8 chany_top_in[2]:6 chany_top_in[2]:5 0.00341
9 chany_top_in[2]:3 mux_left_track_25\/mux_l1_in_0_:A1 0.152
10 chany_top_in[2]:4 chany_top_in[2]:3 0.0045

*END

*D_NET chany_top_in[7] 0.004846767 //LENGTH 35.865 LUMPCC 0.0003496094 DR

*CONN
*P chany_top_in[7] I *L 0.29796 *C 66.700 102.070
*I mux_left_track_1\/mux_l1_in_0_:A0 I *L 0.001631 *C 73.905 88.060
*I mux_right_track_2\/mux_l1_in_0_:A0 I *L 0.001631 *C 85.735 91.460
*N chany_top_in[7]:3 *C 85.698 91.460
*N chany_top_in[7]:4 *C 84.225 91.460
*N chany_top_in[7]:5 *C 84.180 91.415
*N chany_top_in[7]:6 *C 84.180 90.498
*N chany_top_in[7]:7 *C 84.172 90.440
*N chany_top_in[7]:8 *C 73.905 88.060
*N chany_top_in[7]:9 *C 73.600 88.060
*N chany_top_in[7]:10 *C 73.600 88.105
*N chany_top_in[7]:11 *C 73.600 90.383
*N chany_top_in[7]:12 *C 73.600 90.440
*N chany_top_in[7]:13 *C 66.708 90.440
*N chany_top_in[7]:14 *C 66.700 90.498

*CAP
0 chany_top_in[7] 0.0005246289
1 mux_left_track_1\/mux_l1_in_0_:A0 1e-06
2 mux_right_track_2\/mux_l1_in_0_:A0 1e-06
3 chany_top_in[7]:3 0.0001316505
4 chany_top_in[7]:4 0.0001316505
5 chany_top_in[7]:5 7.535169e-05
6 chany_top_in[7]:6 7.535169e-05
7 chany_top_in[7]:7 0.000757735
8 chany_top_in[7]:8 5.041534e-05
9 chany_top_in[7]:9 5.52456e-05
10 chany_top_in[7]:10 0.0001664995
11 chany_top_in[7]:11 0.0001664995
12 chany_top_in[7]:12 0.001296618
13 chany_top_in[7]:13 0.0005388826