*SPEF "1481-1998"
*DESIGN "sb_1__1_"
*DATE "Mon Oct 26 23:03:32 2020"
*
*
*
*
*DIVIDER /
*DELIMITER :
*T_UNIT 1 NS
*C_UNIT 1 PF
*R_UNIT 1 KOHM
*L_UNIT 1 HENRY

// XY_UNIT 1 UM
// PARASITIC_TECH nominal at 25.000 degree

*PORTS
prog_clk[0] I *C 2.300 27.880
chany_top_in[0] I *C 80.500 129.880
chany_top_in[1] I *C 57.500 129.880
chany_top_in[2] I *C 82.340 129.880
chany_top_in[3] I *C 74.060 129.880
chany_top_in[4] I *C 51.980 129.880
chany_top_in[5] I *C 60.260 129.880
chany_top_in[6] I *C 74.980 129.880
chany_top_in[7] I *C 66.700 129.880
chany_top_in[8] I *C 72.220 129.880
chany_top_in[9] I *C 67.620 129.880
chany_top_in[10] I *C 73.140 129.880
chany_top_in[11] I *C 75.900 129.880
chany_top_in[12] I *C 52.900 129.880
chany_top_in[13] I *C 63.480 129.880
chany_top_in[14] I *C 54.740 129.880
chany_top_in[15] I *C 53.820 129.880
chany_top_in[16] I *C 69.460 129.880
chany_top_in[17] I *C 81.420 129.880
chany_top_in[18] I *C 84.640 129.880
chany_top_in[19] I *C 59.340 129.880
top_left_grid_pin_34_[0] I *C 31.740 129.880
top_left_grid_pin_35_[0] I *C 32.660 129.880
top_left_grid_pin_36_[0] I *C 29.210 127.160
top_left_grid_pin_37_[0] I *C 30.820 129.880
top_left_grid_pin_38_[0] I *C 29.210 125.120
top_left_grid_pin_39_[0] I *C 29.210 123.760
top_left_grid_pin_40_[0] I *C 29.210 122.400
top_left_grid_pin_41_[0] I *C 29.210 117.640
chanx_right_in[0] I *C 140.990 48.960
chanx_right_in[1] I *C 140.990 99.280
chanx_right_in[2] I *C 140.990 55.760
chanx_right_in[3] I *C 140.990 38.080
chanx_right_in[4] I *C 140.990 93.840
chanx_right_in[5] I *C 140.990 95.200
chanx_right_in[6] I *C 140.990 77.520
chanx_right_in[7] I *C 140.990 69.360
chanx_right_in[8] I *C 140.990 44.880
chanx_right_in[9] I *C 140.990 51.000
chanx_right_in[10] I *C 140.990 36.720
chanx_right_in[11] I *C 140.990 43.520
chanx_right_in[12] I *C 140.990 96.560
chanx_right_in[13] I *C 140.990 32.640
chanx_right_in[14] I *C 140.990 91.120
chanx_right_in[15] I *C 140.990 57.120
chanx_right_in[16] I *C 140.990 39.440
chanx_right_in[17] I *C 140.990 34.000
chanx_right_in[18] I *C 140.990 65.280
chanx_right_in[19] I *C 140.990 31.280
right_top_grid_pin_42_[0] I *C 138.460 102.680
right_top_grid_pin_43_[0] I *C 112.470 126.480
right_top_grid_pin_44_[0] I *C 139.380 102.680
right_top_grid_pin_45_[0] I *C 137.540 102.680
right_top_grid_pin_46_[0] I *C 112.470 119.000
right_top_grid_pin_47_[0] I *C 112.470 117.640
right_top_grid_pin_48_[0] I *C 135.700 102.680
right_top_grid_pin_49_[0] I *C 136.620 102.680
chany_bottom_in[0] I *C 82.340 0.680
chany_bottom_in[1] I *C 67.160 0.680
chany_bottom_in[2] I *C 81.420 0.680
chany_bottom_in[3] I *C 88.320 0.680
chany_bottom_in[4] I *C 65.320 0.680
chany_bottom_in[5] I *C 75.900 0.680
chany_bottom_in[6] I *C 94.300 0.680
chany_bottom_in[7] I *C 87.400 0.680
chany_bottom_in[8] I *C 77.740 0.680
chany_bottom_in[9] I *C 84.180 0.680
chany_bottom_in[10] I *C 62.560 0.680
chany_bottom_in[11] I *C 86.480 0.680
chany_bottom_in[12] I *C 79.580 0.680
chany_bottom_in[13] I *C 68.080 0.680
chany_bottom_in[14] I *C 66.240 0.680
chany_bottom_in[15] I *C 53.360 0.680
chany_bottom_in[16] I *C 76.820 0.680
chany_bottom_in[17] I *C 69.920 0.680
chany_bottom_in[18] I *C 57.500 0.680
chany_bottom_in[19] I *C 78.660 0.680
bottom_left_grid_pin_34_[0] I *C 29.210 10.200
bottom_left_grid_pin_35_[0] I *C 29.210 8.160
bottom_left_grid_pin_36_[0] I *C 29.210 6.800
bottom_left_grid_pin_37_[0] I *C 29.210 3.400
bottom_left_grid_pin_38_[0] I *C 29.210 4.760
bottom_left_grid_pin_39_[0] I *C 29.210 11.560
bottom_left_grid_pin_40_[0] I *C 29.210 12.920
bottom_left_grid_pin_41_[0] I *C 29.210 14.280
chanx_left_in[0] I *C 0.690 76.160
chanx_left_in[1] I *C 0.690 38.080
chanx_left_in[2] I *C 0.690 35.360
chanx_left_in[3] I *C 0.690 39.440
chanx_left_in[4] I *C 0.690 85.680
chanx_left_in[5] I *C 0.690 87.040
chanx_left_in[6] I *C 0.690 34.000
chanx_left_in[7] I *C 0.690 42.160
chanx_left_in[8] I *C 0.690 43.520
chanx_left_in[9] I *C 0.690 72.080
chanx_left_in[10] I *C 0.690 59.160
chanx_left_in[11] I *C 0.690 36.720
chanx_left_in[12] I *C 0.690 97.920
chanx_left_in[13] I *C 0.690 93.840
chanx_left_in[14] I *C 0.690 92.480
chanx_left_in[15] I *C 0.690 77.520
chanx_left_in[16] I *C 0.690 51.680
chanx_left_in[17] I *C 0.690 55.760
chanx_left_in[18] I *C 0.690 68.000
chanx_left_in[19] I *C 0.690 46.240
left_top_grid_pin_42_[0] I *C 7.360 102.680
left_top_grid_pin_43_[0] I *C 29.210 119.000
left_top_grid_pin_44_[0] I *C 4.140 102.680
left_top_grid_pin_45_[0] I *C 5.060 102.680
left_top_grid_pin_46_[0] I *C 2.300 102.680
left_top_grid_pin_47_[0] I *C 3.220 102.680
left_top_grid_pin_48_[0] I *C 11.500 102.680
left_top_grid_pin_49_[0] I *C 10.580 102.680
ccff_head[0] I *C 140.990 88.400
chany_top_out[0] O *C 76.820 129.880
chany_top_out[1] O *C 61.180 129.880
chany_top_out[2] O *C 77.740 129.880
chany_top_out[3] O *C 71.300 129.880
chany_top_out[4] O *C 98.900 129.880
chany_top_out[5] O *C 83.720 129.880
chany_top_out[6] O *C 70.380 129.880
chany_top_out[7] O *C 50.140 129.880
chany_top_out[8] O *C 68.540 129.880
chany_top_out[9] O *C 58.420 129.880
chany_top_out[10] O *C 96.600 129.880
chany_top_out[11] O *C 93.840 129.880
chany_top_out[12] O *C 79.580 129.880
chany_top_out[13] O *C 64.400 129.880
chany_top_out[14] O *C 97.520 129.880
chany_top_out[15] O *C 51.060 129.880
chany_top_out[16] O *C 86.940 129.880
chany_top_out[17] O *C 62.100 129.880
chany_top_out[18] O *C 95.680 129.880
chany_top_out[19] O *C 78.660 129.880
chanx_right_out[0] O *C 140.990 84.320
chanx_right_out[1] O *C 140.990 82.960
chanx_right_out[2] O *C 140.990 62.560
chanx_right_out[3] O *C 140.990 74.120
chanx_right_out[4] O *C 140.990 80.240
chanx_right_out[5] O *C 140.990 72.080
chanx_right_out[6] O *C 140.990 58.480
chanx_right_out[7] O *C 140.990 35.360
chanx_right_out[8] O *C 140.990 46.240
chanx_right_out[9] O *C 140.990 63.920
chanx_right_out[10] O *C 140.990 61.200
chanx_right_out[11] O *C 140.990 78.880
chanx_right_out[12] O *C 140.990 42.160
chanx_right_out[13] O *C 140.990 85.680
chanx_right_out[14] O *C 140.990 47.600
chanx_right_out[15] O *C 140.990 68.000
chanx_right_out[16] O *C 140.990 40.800
chanx_right_out[17] O *C 140.990 66.640
chanx_right_out[18] O *C 140.990 52.360
chanx_right_out[19] O *C 140.990 89.760
chany_bottom_out[0] O *C 83.260 0.680
chany_bottom_out[1] O *C 59.800 0.680
chany_bottom_out[2] O *C 52.440 0.680
chany_bottom_out[3] O *C 69.000 0.680
chany_bottom_out[4] O *C 96.600 0.680
chany_bottom_out[5] O *C 71.760 0.680
chany_bottom_out[6] O *C 74.980 0.680
chany_bottom_out[7] O *C 60.720 0.680
chany_bottom_out[8] O *C 63.480 0.680
chany_bottom_out[9] O *C 54.280 0.680
chany_bottom_out[10] O *C 93.380 0.680
chany_bottom_out[11] O *C 74.060 0.680
chany_bottom_out[12] O *C 80.500 0.680
chany_bottom_out[13] O *C 61.640 0.680
chany_bottom_out[14] O *C 97.520 0.680
chany_bottom_out[15] O *C 55.200 0.680
chany_bottom_out[16] O *C 64.400 0.680
chany_bottom_out[17] O *C 58.880 0.680
chany_bottom_out[18] O *C 73.140 0.680
chany_bottom_out[19] O *C 70.840 0.680
chanx_left_out[0] O *C 0.690 61.200
chanx_left_out[1] O *C 0.690 81.600
chanx_left_out[2] O *C 0.690 82.960
chanx_left_out[3] O *C 0.690 74.800
chanx_left_out[4] O *C 0.690 80.240
chanx_left_out[5] O *C 0.690 47.600
chanx_left_out[6] O *C 0.690 50.320
chanx_left_out[7] O *C 0.690 65.960
chanx_left_out[8] O *C 0.690 48.960
chanx_left_out[9] O *C 0.690 69.360
chanx_left_out[10] O *C 0.690 53.040
chanx_left_out[11] O *C 0.690 96.560
chanx_left_out[12] O *C 0.690 44.880
chanx_left_out[13] O *C 0.690 99.280
chanx_left_out[14] O *C 0.690 54.400
chanx_left_out[15] O *C 0.690 40.800
chanx_left_out[16] O *C 0.690 31.960
chanx_left_out[17] O *C 0.690 88.400
chanx_left_out[18] O *C 0.690 70.720
chanx_left_out[19] O *C 0.690 91.120
ccff_tail[0] O *C 0.690 64.600
VDD I *C 70.840 65.280
VSS I *C 70.840 65.280

*D_NET chany_top_in[2] 0.02469542 //LENGTH 176.305 LUMPCC 0.006814743 DR

*CONN
*P chany_top_in[2] I *L 0.29796 *C 82.340 129.270
*I mux_right_track_0\/mux_l1_in_0_:A1 I *L 0.00198 *C 81.520 99.620
*I mux_bottom_track_1\/mux_l1_in_0_:A1 I *L 0.00198 *C 79.580 25.500
*I ropt_mt_inst_797:A I *L 0.001767 *C 67.915 4.080
*I mux_left_track_1\/mux_l1_in_0_:A0 I *L 0.001631 *C 80.815 91.460
*N chany_top_in[2]:5 *C 80.815 91.460
*N chany_top_in[2]:6 *C 80.815 91.120
*N chany_top_in[2]:7 *C 80.085 91.120
*N chany_top_in[2]:8 *C 80.040 91.165
*N chany_top_in[2]:9 *C 67.953 4.080
*N chany_top_in[2]:10 *C 68.955 4.080
*N chany_top_in[2]:11 *C 69.000 4.125
*N chany_top_in[2]:12 *C 69.000 10.155
*N chany_top_in[2]:13 *C 69.045 10.200
*N chany_top_in[2]:14 *C 79.995 10.200
*N chany_top_in[2]:15 *C 80.040 10.245
*N chany_top_in[2]:16 *C 79.618 25.500
*N chany_top_in[2]:17 *C 79.995 25.500
*N chany_top_in[2]:18 *C 80.040 25.500
*N chany_top_in[2]:19 *C 80.040 25.103
*N chany_top_in[2]:20 *C 80.047 25.160
*N chany_top_in[2]:21 *C 92.900 25.160
*N chany_top_in[2]:22 *C 92.920 25.168
*N chany_top_in[2]:23 *C 92.920 74.995
*N chany_top_in[2]:24 *C 92.920 94.513
*N chany_top_in[2]:25 *C 92.900 94.520
*N chany_top_in[2]:26 *C 80.047 94.520
*N chany_top_in[2]:27 *C 80.040 94.520
*N chany_top_in[2]:28 *C 81.483 99.620
*N chany_top_in[2]:29 *C 80.085 99.620
*N chany_top_in[2]:30 *C 80.040 99.620
*N chany_top_in[2]:31 *C 80.040 102.635
*N chany_top_in[2]:32 *C 80.085 102.680
*N chany_top_in[2]:33 *C 82.295 102.680
*N chany_top_in[2]:34 *C 82.340 102.725

*CAP
0 chany_top_in[2] 0.001584059
1 mux_right_track_0\/mux_l1_in_0_:A1 1e-06
2 mux_bottom_track_1\/mux_l1_in_0_:A1 1e-06
3 ropt_mt_inst_797:A 1e-06
4 mux_left_track_1\/mux_l1_in_0_:A0 1e-06
5 chany_top_in[2]:5 5.375805e-05
6 chany_top_in[2]:6 7.767185e-05
7 chany_top_in[2]:7 5.520241e-05
8 chany_top_in[2]:8 0.0001475153
9 chany_top_in[2]:9 9.207052e-05
10 chany_top_in[2]:10 9.207052e-05
11 chany_top_in[2]:11 0.0003540082
12 chany_top_in[2]:12 0.0003540082
13 chany_top_in[2]:13 0.0007845486
14 chany_top_in[2]:14 0.0007845486
15 chany_top_in[2]:15 0.0005591348
16 chany_top_in[2]:16 4.539983e-05
17 chany_top_in[2]:17 4.539983e-05
18 chany_top_in[2]:18 4.488918e-05
19 chany_top_in[2]:19 0.0005743859
20 chany_top_in[2]:20 0.0007878728
21 chany_top_in[2]:21 0.0007878728
22 chany_top_in[2]:22 0.001827618
23 chany_top_in[2]:23 0.003147403
24 chany_top_in[2]:24 0.001319785
25 chany_top_in[2]:25 0.0007166327
26 chany_top_in[2]:26 0.0007166327
27 chany_top_in[2]:27 0.0003499673
28 chany_top_in[2]:28 0.0001282374
29 chany_top_in[2]:29 0.0001282374
30 chany_top_in[2]:30 0.0003106133
31 chany_top_in[2]:31 0.0001161626
32 chany_top_in[2]:32 0.0001534547
33 chany_top_in[2]:33 0.0001534547
34 chany_top_in[2]:34 0.001584059
35 chany_top_in[2]:17 chany_top_in[12]:19 2.618177e-08
36 chany_top_in[2]:17 chany_top_in[12]:21 3.613084e-06
37 chany_top_in[2]:18 chany_top_in[12]:18 8.733944e-06
38 chany_top_in[2]:16 chany_top_in[12]:8 2.618177e-08
39 chany_top_in[2]:16 chany_top_in[12]:20 3.613084e-06
40 chany_top_in[2]:29 chany_top_in[12]:6 1.446515e-06
41 chany_top_in[2]:30 chany_top_in[12]:42 9.608717e-06
42 chany_top_in[2]:28 chany_top_in[12]:5 1.446515e-06
43 chany_top_in[2]:19 chany_top_in[12]:18 0.0004073959
44 chany_top_in[2]:19 chany_top_in[12]:17 8.733944e-06
45 chany_top_in[2]:32 chany_top_in[12]:41 1.962716e-05
46 chany_top_in[2]:31 chany_top_in[12]:43 9.608717e-06
47 chany_top_in[2]:33 chany_top_in[12]:40 1.962716e-05
48 chany_top_in[2]:15 chany_top_in[12]:17 0.0004073959
49 chany_top_in[2]:12 chany_top_in[12]:11 7.193657e-06
50 chany_top_in[2]:10 chany_top_in[12]:14 1.726653e-05
51 chany_top_in[2]:11 chany_top_in[12]:12 7.193657e-06
52 chany_top_in[2]:9 chany_top_in[12]:13 1.726653e-05
53 chany_top_in[2]:20 chany_top_in[13]:11 8.855393e-05
54 chany_top_in[2]:21 chany_top_in[13]:10 8.855393e-05
55 chany_top_in[2]:25 chany_top_in[13]:26 0.0006464703
56 chany_top_in[2]:26 chany_top_in[13]:27 0.0006464703
57 chany_top_in[2]:22 chany_bottom_in[16]:29 0.0004583438
58 chany_top_in[2]:22 chany_bottom_in[16]:30 0.0004279682
59 chany_top_in[2]:24 chany_bottom_in[16]:19 9.597983e-06
60 chany_top_in[2]:23 chany_bottom_in[16]:29 0.0004375662
61 chany_top_in[2]:23 chany_bottom_in[16]:19 0.0004583438
62 chany_top_in[2] chany_top_in[0] 1.23305e-05
63 chany_top_in[2]:30 chany_top_in[0] 0.0001284423
64 chany_top_in[2]:30 chany_top_in[0]:9 8.439695e-05
65 chany_top_in[2]:27 chany_top_in[0] 8.885298e-05
66 chany_top_in[2]:27 chany_top_in[0]:9 0.0001284423
67 chany_top_in[2]:7 chany_top_in[0]:8 1.939454e-05
68 chany_top_in[2]:8 chany_top_in[0]:9 8.885298e-05
69 chany_top_in[2]:5 chany_top_in[0] 7.520107e-06
70 chany_top_in[2]:31 chany_top_in[0] 8.439695e-05
71 chany_top_in[2]:34 chany_top_in[0]:9 1.23305e-05
72 chany_top_in[2]:6 chany_top_in[0]:7 1.939454e-05
73 chany_top_in[2]:6 chany_top_in[0]:9 7.520107e-06
74 chany_top_in[2]:22 chany_bottom_in[3]:27 0.0007637984
75 chany_top_in[2]:22 chany_bottom_in[3]:26 7.16236e-05
76 chany_top_in[2]:23 chany_bottom_in[3]:19 7.16236e-05
77 chany_top_in[2]:23 chany_bottom_in[3]:26 0.0007637984
78 chany_top_in[2]:30 mux_top_track_0/sky130_fd_sc_hd__mux2_1_3_X[0]:4 5.950011e-05
79 chany_top_in[2]:27 mux_top_track_0/sky130_fd_sc_hd__mux2_1_3_X[0]:5 5.950011e-05
80 chany_top_in[2]:12 ropt_net_207:9 6.56664e-05
81 chany_top_in[2]:11 ropt_net_207:8 6.56664e-05

*RES
0 chany_top_in[2] chany_top_in[2]:34 0.02370089
1 chany_top_in[2]:17 chany_top_in[2]:16 0.0003370536
2 chany_top_in[2]:18 chany_top_in[2]:17 0.0045
3 chany_top_in[2]:16 mux_bottom_track_1\/mux_l1_in_0_:A1 0.152
4 chany_top_in[2]:29 chany_top_in[2]:28 0.001247768
5 chany_top_in[2]:30 chany_top_in[2]:29 0.0045
6 chany_top_in[2]:30 chany_top_in[2]:27 0.004553571
7 chany_top_in[2]:28 mux_right_track_0\/mux_l1_in_0_:A1 0.152
8 chany_top_in[2]:19 chany_top_in[2]:18 0.0001911058
9 chany_top_in[2]:19 chany_top_in[2]:15 0.01326563
10 chany_top_in[2]:20 chany_top_in[2]:19 0.00341
11 chany_top_in[2]:21 chany_top_in[2]:20 0.002013558
12 chany_top_in[2]:22 chany_top_in[2]:21 0.00341
13 chany_top_in[2]:25 chany_top_in[2]:24 0.00341
14 chany_top_in[2]:24 chany_top_in[2]:23 0.003057742
15 chany_top_in[2]:27 chany_top_in[2]:26 0.00341
16 chany_top_in[2]:27 chany_top_in[2]:8 0.002995536
17 chany_top_in[2]:26 chany_top_in[2]:25 0.002013558
18 chany_top_in[2]:7 chany_top_in[2]:6 0.0006517858
19 chany_top_in[2]:8 chany_top_in[2]:7 0.0045
20 chany_top_in[2]:5 mux_left_track_1\/mux_l1_in_0_:A0 0.152
21 chany_top_in[2]:32 chany_top_in[2]:31 0.0045
22 chany_top_in[2]:31 chany_top_in[2]:30 0.002691964
23 chany_top_in[2]:33 chany_top_in[2]:32 0.001973214
24 chany_top_in[2]:34 chany_top_in[2]:33 0.0045
25 chany_top_in[2]:14 chany_top_in[2]:13 0.009776786
26 chany_top_in[2]:15 chany_top_in[2]:14 0.0045
27 chany_top_in[2]:13 chany_top_in[2]:12 0.0045
28 chany_top_in[2]:12 chany_top_in[2]:11 0.005383928
29 chany_top_in[2]:10 chany_top_in[2]:9 0.0008950893
30 chany_top_in[2]:11 chany_top_in[2]:10 0.0045
31 chany_top_in[2]:9 ropt_mt_inst_797:A 0.152
32 chany_top_in[2]:6 chany_top_in[2]:5 0.0003035715
33 chany_top_in[2]:23 chany_top_in[2]:22 0.007806308

*END

*D_NET chanx_right_in[17] 0.0250247 //LENGTH 166.700 LUMPCC 0.0104281 DR

*CONN
*P chanx_right_in[17] I *L 0.29796 *C 140.450 34.000
*I mux_bottom_track_17\/mux_l1_in_2_:A1 I *L 0.00198 *C 61.085 34.340
*I mux_top_track_16\/mux_l1_in_2_:A1 I *L 0.00198 *C 56.025 58.140
*I BUFT_P_133:A I *L 0.001776 *C 6.900 61.200
*I mux_left_track_17\/mux_l1_in_2_:A1 I *L 0.00198 *C 61.640 50.660
*N chanx_right_in[17]:5 *C 61.603 50.660
*N chanx_right_in[17]:6 *C 61.180 50.660
*N chanx_right_in[17]:7 *C 6.900 61.200
*N chanx_right_in[17]:8 *C 6.900 61.155
*N chanx_right_in[17]:9 *C 6.900 58.538
*N chanx_right_in[17]:10 *C 6.908 58.480
*N chanx_right_in[17]:11 *C 56.573 58.480
*N chanx_right_in[17]:12 *C 56.580 58.480
*N chanx_right_in[17]:13 *C 56.062 58.140
*N chanx_right_in[17]:14 *C 56.535 58.140
*N chanx_right_in[17]:15 *C 56.580 58.140
*N chanx_right_in[17]:16 *C 57.040 58.140
*N chanx_right_in[17]:17 *C 57.040 50.365
*N chanx_right_in[17]:18 *C 57.085 50.320
*N chanx_right_in[17]:19 *C 61.180 50.350
*N chanx_right_in[17]:20 *C 61.180 50.275
*N chanx_right_in[17]:21 *C 61.085 34.340
*N chanx_right_in[17]:22 *C 61.180 34.340
*N chanx_right_in[17]:23 *C 61.180 33.378
*N chanx_right_in[17]:24 *C 61.188 33.320
*N chanx_right_in[17]:25 *C 98.440 33.320
*N chanx_right_in[17]:26 *C 98.440 34.000

*CAP
0 chanx_right_in[17] 0.001478091
1 mux_bottom_track_17\/mux_l1_in_2_:A1 1e-06
2 mux_top_track_16\/mux_l1_in_2_:A1 1e-06
3 BUFT_P_133:A 1e-06
4 mux_left_track_17\/mux_l1_in_2_:A1 1e-06
5 chanx_right_in[17]:5 6.130184e-05
6 chanx_right_in[17]:6 9.136946e-05
7 chanx_right_in[17]:7 3.765919e-05
8 chanx_right_in[17]:8 0.0001570123
9 chanx_right_in[17]:9 0.0001570123
10 chanx_right_in[17]:10 0.001790744
11 chanx_right_in[17]:11 0.001790745
12 chanx_right_in[17]:12 6.08517e-05
13 chanx_right_in[17]:13 5.568166e-05
14 chanx_right_in[17]:14 5.568166e-05
15 chanx_right_in[17]:15 8.81809e-05
16 chanx_right_in[17]:16 0.000517233
17 chanx_right_in[17]:17 0.0004844207
18 chanx_right_in[17]:18 0.0003454929
19 chanx_right_in[17]:19 0.0003755605
20 chanx_right_in[17]:20 0.0008732522
21 chanx_right_in[17]:21 2.753157e-05
22 chanx_right_in[17]:22 0.0009680741
23 chanx_right_in[17]:23 6.112378e-05
24 chanx_right_in[17]:24 0.001751811
25 chanx_right_in[17]:25 0.001818747
26 chanx_right_in[17]:26 0.001545027
27 chanx_right_in[17] chanx_right_in[13] 4.943007e-05
28 chanx_right_in[17] chanx_right_in[13]:35 0.0002275048
29 chanx_right_in[17] chanx_right_in[13]:36 0.0004537681
30 chanx_right_in[17]:23 chanx_right_in[13]:33 3.827572e-06
31 chanx_right_in[17]:24 chanx_right_in[13]:34 0.0006232625
32 chanx_right_in[17]:22 chanx_right_in[13]:29 3.827572e-06
33 chanx_right_in[17]:22 chanx_right_in[13]:33 2.148792e-05
34 chanx_right_in[17]:20 chanx_right_in[13]:29 2.148792e-05
35 chanx_right_in[17]:25 chanx_right_in[13]:35 0.0006232625
36 chanx_right_in[17]:26 chanx_right_in[13]:34 0.0002275048
37 chanx_right_in[17]:26 chanx_right_in[13]:35 0.0004537681
38 chanx_right_in[17]:26 chanx_right_in[13]:37 4.943007e-05
39 chanx_right_in[17] chanx_left_in[6]:30 4.193445e-05
40 chanx_right_in[17] chanx_left_in[6]:16 4.644439e-05
41 chanx_right_in[17]:24 chanx_left_in[6]:32 0.0004852014
42 chanx_right_in[17]:24 chanx_left_in[6]:31 0.0001929841
43 chanx_right_in[17]:25 chanx_left_in[6]:30 0.0001929841
44 chanx_right_in[17]:25 chanx_left_in[6]:31 0.0004852014
45 chanx_right_in[17]:26 chanx_left_in[6]:26 4.644439e-05
46 chanx_right_in[17]:26 chanx_left_in[6]:31 4.193445e-05
47 chanx_right_in[17]:11 chanx_left_in[10]:28 7.143147e-05
48 chanx_right_in[17]:11 chanx_left_in[10]:33 0.0007672836
49 chanx_right_in[17]:10 chanx_left_in[10] 0.0007672836
50 chanx_right_in[17]:10 chanx_left_in[10]:29 7.143147e-05
51 chanx_right_in[17]:11 mux_tree_tapbuf_size10_11_sram[1]:26 3.811777e-05
52 chanx_right_in[17]:11 mux_tree_tapbuf_size10_11_sram[1]:27 0.0005210789
53 chanx_right_in[17]:10 mux_tree_tapbuf_size10_11_sram[1]:26 0.0005210789
54 chanx_right_in[17]:10 mux_tree_tapbuf_size10_11_sram[1]:19 3.811777e-05
55 chanx_right_in[17]:11 mux_left_track_25/sky130_fd_sc_hd__mux2_1_3_X[0]:7 0.001664885
56 chanx_right_in[17]:10 mux_left_track_25/sky130_fd_sc_hd__mux2_1_3_X[0]:6 0.001664885
57 chanx_right_in[17]:15 mux_left_track_25/sky130_fd_sc_hd__mux2_1_3_X[0]:6 5.406566e-06
58 chanx_right_in[17]:16 mux_left_track_25/sky130_fd_sc_hd__mux2_1_3_X[0]:7 5.406566e-06

*RES
0 chanx_right_in[17] chanx_right_in[17]:26 0.006581566
1 chanx_right_in[17]:5 mux_left_track_17\/mux_l1_in_2_:A1 0.152
2 chanx_right_in[17]:12 chanx_right_in[17]:11 0.00341
3 chanx_right_in[17]:11 chanx_right_in[17]:10 0.007780849
4 chanx_right_in[17]:9 chanx_right_in[17]:8 0.002337054
5 chanx_right_in[17]:10 chanx_right_in[17]:9 0.00341
6 chanx_right_in[17]:7 BUFT_P_133:A 0.152
7 chanx_right_in[17]:8 chanx_right_in[17]:7 0.0045
8 chanx_right_in[17]:14 chanx_right_in[17]:13 0.000421875
9 chanx_right_in[17]:15 chanx_right_in[17]:14 0.0045
10 chanx_right_in[17]:15 chanx_right_in[17]:12 0.0001634616
11 chanx_right_in[17]:13 mux_top_track_16\/mux_l1_in_2_:A1 0.152
12 chanx_right_in[17]:23 chanx_right_in[17]:22 0.0008593751
13 chanx_right_in[17]:24 chanx_right_in[17]:23 0.00341
14 chanx_right_in[17]:21 mux_bottom_track_17\/mux_l1_in_2_:A1 0.152
15 chanx_right_in[17]:22 chanx_right_in[17]:21 0.0045
16 chanx_right_in[17]:22 chanx_right_in[17]:20 0.01422768
17 chanx_right_in[17]:19 chanx_right_in[17]:18 0.00365625
18 chanx_right_in[17]:19 chanx_right_in[17]:6 0.0002767857
19 chanx_right_in[17]:20 chanx_right_in[17]:19 0.0045
20 chanx_right_in[17]:18 chanx_right_in[17]:17 0.0045
21 chanx_right_in[17]:17 chanx_right_in[17]:16 0.006941964
22 chanx_right_in[17]:6 chanx_right_in[17]:5 0.0003772322
23 chanx_right_in[17]:16 chanx_right_in[17]:15 0.0004107143
24 chanx_right_in[17]:25 chanx_right_in[17]:24 0.005836224
25 chanx_right_in[17]:26 chanx_right_in[17]:25 0.0001065333

*END

*D_NET chany_bottom_in[4] 0.02108362 //LENGTH 157.180 LUMPCC 0.003187673 DR

*CONN
*P chany_bottom_in[4] I *L 0.29796 *C 65.320 1.290
*I mux_top_track_2\/mux_l1_in_3_:A0 I *L 0.001631 *C 63.310 91.800
*I mux_left_track_3\/mux_l1_in_3_:A1 I *L 0.00198 *C 67.065 96.220
*I BUFT_RR_90:A I *L 0.001776 *C 86.020 99.280
*I mux_right_track_2\/mux_l1_in_3_:A0 I *L 0.001631 *C 111.035 97.240
*N chany_bottom_in[4]:5 *C 110.998 97.240
*N chany_bottom_in[4]:6 *C 106.305 97.240
*N chany_bottom_in[4]:7 *C 106.260 97.285
*N chany_bottom_in[4]:8 *C 106.260 98.543
*N chany_bottom_in[4]:9 *C 106.253 98.600
*N chany_bottom_in[4]:10 *C 86.028 98.600
*N chany_bottom_in[4]:11 *C 86.020 98.657
*N chany_bottom_in[4]:12 *C 86.020 99.280
*N chany_bottom_in[4]:13 *C 86.020 99.280
*N chany_bottom_in[4]:14 *C 86.020 101.943
*N chany_bottom_in[4]:15 *C 86.013 102.000
*N chany_bottom_in[4]:16 *C 65.788 102.000
*N chany_bottom_in[4]:17 *C 65.780 101.943
*N chany_bottom_in[4]:18 *C 67.028 96.220
*N chany_bottom_in[4]:19 *C 65.825 96.220
*N chany_bottom_in[4]:20 *C 65.780 96.265
*N chany_bottom_in[4]:21 *C 65.320 96.220
*N chany_bottom_in[4]:22 *C 63.348 91.800
*N chany_bottom_in[4]:23 *C 65.275 91.800
*N chany_bottom_in[4]:24 *C 65.320 91.800
*N chany_bottom_in[4]:25 *C 65.320 51.290

*CAP
0 chany_bottom_in[4] 0.002599089
1 mux_top_track_2\/mux_l1_in_3_:A0 1e-06
2 mux_left_track_3\/mux_l1_in_3_:A1 1e-06
3 BUFT_RR_90:A 1e-06
4 mux_right_track_2\/mux_l1_in_3_:A0 1e-06
5 chany_bottom_in[4]:5 0.0003441257
6 chany_bottom_in[4]:6 0.0003441257
7 chany_bottom_in[4]:7 9.656634e-05
8 chany_bottom_in[4]:8 9.656634e-05
9 chany_bottom_in[4]:9 0.001297168
10 chany_bottom_in[4]:10 0.001297168
11 chany_bottom_in[4]:11 4.691219e-05
12 chany_bottom_in[4]:12 3.482484e-05
13 chany_bottom_in[4]:13 0.0002293952
14 chany_bottom_in[4]:14 0.0001521145
15 chany_bottom_in[4]:15 0.001077797
16 chany_bottom_in[4]:16 0.001077797
17 chany_bottom_in[4]:17 0.0003985957
18 chany_bottom_in[4]:18 0.0001191687
19 chany_bottom_in[4]:19 0.0001191687
20 chany_bottom_in[4]:20 0.0003762268
21 chany_bottom_in[4]:21 0.0002794464
22 chany_bottom_in[4]:22 0.0001613235
23 chany_bottom_in[4]:23 0.0001613235
24 chany_bottom_in[4]:24 0.002659862
25 chany_bottom_in[4]:25 0.004923183
26 chany_bottom_in[4]:16 chanx_right_in[5]:28 0.001065653
27 chany_bottom_in[4]:15 chanx_right_in[5]:29 0.001065653
28 chany_bottom_in[4]:10 chanx_right_in[5]:28 2.38331e-05
29 chany_bottom_in[4]:10 chanx_right_in[5]:29 0.0001348352
30 chany_bottom_in[4]:9 chanx_right_in[5]:29 2.38331e-05
31 chany_bottom_in[4]:9 chanx_right_in[5]:30 0.0001348352
32 chany_bottom_in[4] prog_clk[0]:350 0.0001341172
33 chany_bottom_in[4]:10 prog_clk[0]:249 0.0001374097
34 chany_bottom_in[4]:9 prog_clk[0]:248 0.0001374097
35 chany_bottom_in[4]:25 prog_clk[0]:351 0.0001341172
36 chany_bottom_in[4]:20 mux_top_track_2/sky130_fd_sc_hd__mux2_1_2_X[0]:7 5.567338e-05
37 chany_bottom_in[4]:21 mux_top_track_2/sky130_fd_sc_hd__mux2_1_2_X[0]:6 5.567338e-05
38 chany_bottom_in[4]:24 mux_left_track_17/sky130_fd_sc_hd__mux2_1_1_X[0]:4 4.231496e-05
39 chany_bottom_in[4]:25 mux_left_track_17/sky130_fd_sc_hd__mux2_1_1_X[0]:5 4.231496e-05

*RES
0 chany_bottom_in[4] chany_bottom_in[4]:25 0.04464286
1 chany_bottom_in[4]:17 chany_bottom_in[4]:16 0.00341
2 chany_bottom_in[4]:16 chany_bottom_in[4]:15 0.003168583
3 chany_bottom_in[4]:14 chany_bottom_in[4]:13 0.002377232
4 chany_bottom_in[4]:15 chany_bottom_in[4]:14 0.00341
5 chany_bottom_in[4]:11 chany_bottom_in[4]:10 0.00341
6 chany_bottom_in[4]:10 chany_bottom_in[4]:9 0.003168583
7 chany_bottom_in[4]:8 chany_bottom_in[4]:7 0.001122768
8 chany_bottom_in[4]:9 chany_bottom_in[4]:8 0.00341
9 chany_bottom_in[4]:6 chany_bottom_in[4]:5 0.004189732
10 chany_bottom_in[4]:7 chany_bottom_in[4]:6 0.0045
11 chany_bottom_in[4]:5 mux_right_track_2\/mux_l1_in_3_:A0 0.152
12 chany_bottom_in[4]:19 chany_bottom_in[4]:18 0.001073661
13 chany_bottom_in[4]:20 chany_bottom_in[4]:19 0.0045
14 chany_bottom_in[4]:20 chany_bottom_in[4]:17 0.005069197
15 chany_bottom_in[4]:18 mux_left_track_3\/mux_l1_in_3_:A1 0.152
16 chany_bottom_in[4]:23 chany_bottom_in[4]:22 0.001720982
17 chany_bottom_in[4]:24 chany_bottom_in[4]:23 0.0045
18 chany_bottom_in[4]:24 chany_bottom_in[4]:21 0.003946429
19 chany_bottom_in[4]:22 mux_top_track_2\/mux_l1_in_3_:A0 0.152
20 chany_bottom_in[4]:12 BUFT_RR_90:A 0.152
21 chany_bottom_in[4]:13 chany_bottom_in[4]:12 0.0045
22 chany_bottom_in[4]:13 chany_bottom_in[4]:11 0.0005558036
23 chany_bottom_in[4]:21 chany_bottom_in[4]:20 0.0004107143
24 chany_bottom_in[4]:25 chany_bottom_in[4]:24 0.03616964

*END

*D_NET chany_bottom_in[12] 0.0233618 //LENGTH 145.695 LUMPCC 0.012645 DR

*CONN
*P chany_bottom_in[12] I *L 0.29796 *C 79.580 1.290
*I mux_right_track_0\/mux_l1_in_4_:A1 I *L 0.00198 *C 77.380 77.860
*I mux_left_track_1\/mux_l1_in_3_:A1 I *L 0.00198 *C 70.285 79.900
*I mux_top_track_0\/mux_l1_in_4_:A1 I *L 0.00198 *C 73.700 96.220
*I FTB_34__33:A I *L 0.001776 *C 67.620 126.480
*N chany_bottom_in[12]:5 *C 67.657 126.480
*N chany_bottom_in[12]:6 *C 68.080 126.480
*N chany_bottom_in[12]:7 *C 68.080 126.140
*N chany_bottom_in[12]:8 *C 69.875 126.140
*N chany_bottom_in[12]:9 *C 69.920 126.095
*N chany_bottom_in[12]:10 *C 69.920 118.320
*N chany_bottom_in[12]:11 *C 71.300 118.320
*N chany_bottom_in[12]:12 *C 73.663 96.220
*N chany_bottom_in[12]:13 *C 71.345 96.220
*N chany_bottom_in[12]:14 *C 71.300 96.220
*N chany_bottom_in[12]:15 *C 71.300 80.240
*N chany_bottom_in[12]:16 *C 70.840 80.240
*N chany_bottom_in[12]:17 *C 70.840 80.240
*N chany_bottom_in[12]:18 *C 70.323 79.900
*N chany_bottom_in[12]:19 *C 70.840 79.900
*N chany_bottom_in[12]:20 *C 77.235 79.900
*N chany_bottom_in[12]:21 *C 77.280 79.855
*N chany_bottom_in[12]:22 *C 77.280 77.860
*N chany_bottom_in[12]:23 *C 77.280 77.905
*N chany_bottom_in[12]:24 *C 77.280 78.880
*N chany_bottom_in[12]:25 *C 77.288 78.880
*N chany_bottom_in[12]:26 *C 78.180 78.880
*N chany_bottom_in[12]:27 *C 78.200 78.873
*N chany_bottom_in[12]:28 *C 78.200 52.555
*N chany_bottom_in[12]:29 *C 78.200 2.728
*N chany_bottom_in[12]:30 *C 78.220 2.720
*N chany_bottom_in[12]:31 *C 79.573 2.720
*N chany_bottom_in[12]:32 *C 79.580 2.663

*CAP
0 chany_bottom_in[12] 9.876343e-05
1 mux_right_track_0\/mux_l1_in_4_:A1 1e-06
2 mux_left_track_1\/mux_l1_in_3_:A1 1e-06
3 mux_top_track_0\/mux_l1_in_4_:A1 1e-06
4 FTB_34__33:A 1e-06
5 chany_bottom_in[12]:5 5.830484e-05
6 chany_bottom_in[12]:6 8.606006e-05
7 chany_bottom_in[12]:7 0.0001933286
8 chany_bottom_in[12]:8 0.0001655734
9 chany_bottom_in[12]:9 0.0004438093
10 chany_bottom_in[12]:10 0.0005211885
11 chany_bottom_in[12]:11 0.0009541916
12 chany_bottom_in[12]:12 0.0001791811
13 chany_bottom_in[12]:13 0.0001791811
14 chany_bottom_in[12]:14 0.00169201
15 chany_bottom_in[12]:15 0.0007821982
16 chany_bottom_in[12]:16 3.374125e-05
17 chany_bottom_in[12]:17 6.565053e-05
18 chany_bottom_in[12]:18 2.850654e-05
19 chany_bottom_in[12]:19 0.0003441782
20 chany_bottom_in[12]:20 0.0002855047
21 chany_bottom_in[12]:21 7.650812e-05
22 chany_bottom_in[12]:22 3.43993e-05
23 chany_bottom_in[12]:23 7.650812e-05
24 chany_bottom_in[12]:24 0.0001905086
25 chany_bottom_in[12]:25 0.0001361089
26 chany_bottom_in[12]:26 0.0001361089
27 chany_bottom_in[12]:27 0.0007856792
28 chany_bottom_in[12]:28 0.00182648
29 chany_bottom_in[12]:29 0.001040801
30 chany_bottom_in[12]:30 9.97808e-05
31 chany_bottom_in[12]:31 9.97808e-05
32 chany_bottom_in[12]:32 9.876343e-05
33 chany_bottom_in[12]:9 chany_top_in[8]:35 1.269591e-06
34 chany_bottom_in[12]:14 chany_top_in[8]:29 3.158874e-05
35 chany_bottom_in[12]:14 chany_top_in[8]:31 2.311086e-06
36 chany_bottom_in[12]:14 chany_top_in[8]:32 8.979392e-05
37 chany_bottom_in[12]:14 chany_top_in[8]:33 8.082739e-05
38 chany_bottom_in[12]:14 chany_top_in[8]:34 0.0003412662
39 chany_bottom_in[12]:10 chany_top_in[8]:34 1.269591e-06
40 chany_bottom_in[12]:11 chany_top_in[8]:33 8.979392e-05
41 chany_bottom_in[12]:11 chany_top_in[8]:35 0.0003412662
42 chany_bottom_in[12]:15 chany_top_in[8]:28 3.158874e-05
43 chany_bottom_in[12]:15 chany_top_in[8]:30 2.311086e-06
44 chany_bottom_in[12]:15 chany_top_in[8]:32 8.082739e-05
45 chany_bottom_in[12]:27 chanx_left_in[12]:12 0.00114559
46 chany_bottom_in[12]:29 chanx_left_in[12]:11 0.0005082255
47 chany_bottom_in[12]:28 chanx_left_in[12]:11 0.00114559
48 chany_bottom_in[12]:28 chanx_left_in[12]:12 0.0005082255
49 chany_bottom_in[12]:29 chany_bottom_in[0]:18 0.0007580462
50 chany_bottom_in[12]:28 chany_bottom_in[0]:17 0.0007580462
51 chany_bottom_in[12] chany_bottom_in[19] 1.227523e-05
52 chany_bottom_in[12]:27 chany_bottom_in[19]:16 0.0005445902
53 chany_bottom_in[12]:27 chany_bottom_in[19]:17 0.0001179545
54 chany_bottom_in[12]:30 chany_bottom_in[19]:19 5.34126e-06
55 chany_bottom_in[12]:29 chany_bottom_in[19]:18 0.002097627
56 chany_bottom_in[12]:32 chany_bottom_in[19]:21 1.227523e-05
57 chany_bottom_in[12]:31 chany_bottom_in[19]:20 5.34126e-06
58 chany_bottom_in[12]:14 chany_bottom_in[19]:6 7.914725e-06
59 chany_bottom_in[12]:15 chany_bottom_in[19]:7 7.914725e-06
60 chany_bottom_in[12]:28 chany_bottom_in[19]:18 0.0001179545
61 chany_bottom_in[12]:28 chany_bottom_in[19]:17 0.002642217