*SPEF "1481-1998"
*DESIGN "sb_1__0_"
*DATE "Tue Oct 27 11:35:06 2020"
*
*
*
*
*DIVIDER /
*DELIMITER :
*T_UNIT 1 NS
*C_UNIT 1 PF
*R_UNIT 1 KOHM
*L_UNIT 1 HENRY

// XY_UNIT 1 UM
// PARASITIC_TECH nominal at 25.000 degree

*PORTS
prog_clk[0] I *C 2.300 64.600
chany_top_in[0] I *C 65.780 80.920
chany_top_in[1] I *C 42.320 80.920
chany_top_in[2] I *C 56.120 80.920
chany_top_in[3] I *C 51.980 80.920
chany_top_in[4] I *C 49.680 80.920
chany_top_in[5] I *C 50.140 80.920
chany_top_in[6] I *C 55.200 80.920
chany_top_in[7] I *C 59.340 80.920
chany_top_in[8] I *C 56.120 80.920
chany_top_in[9] I *C 57.960 80.920
chany_top_in[10] I *C 53.360 80.920
chany_top_in[11] I *C 49.220 80.920
chany_top_in[12] I *C 47.840 80.920
chany_top_in[13] I *C 45.080 80.920
chany_top_in[14] I *C 54.280 80.920
chany_top_in[15] I *C 51.060 80.920
chany_top_in[16] I *C 51.520 80.920
chany_top_in[17] I *C 41.400 80.920
chany_top_in[18] I *C 39.560 80.920
chany_top_in[19] I *C 39.560 80.920
top_left_grid_pin_34_[0] I *C 23.460 80.920
top_left_grid_pin_35_[0] I *C 24.380 80.920
top_left_grid_pin_36_[0] I *C 22.540 80.920
top_left_grid_pin_37_[0] I *C 8.280 64.600
top_left_grid_pin_38_[0] I *C 21.620 80.920
top_left_grid_pin_39_[0] I *C 23.000 80.920
top_left_grid_pin_40_[0] I *C 20.700 80.920
top_left_grid_pin_41_[0] I *C 7.820 64.600
chanx_right_in[0] I *C 102.350 17.680
chanx_right_in[1] I *C 102.350 14.960
chanx_right_in[2] I *C 102.350 29.240
chanx_right_in[3] I *C 102.350 8.160
chanx_right_in[4] I *C 102.350 12.240
chanx_right_in[5] I *C 102.350 6.800
chanx_right_in[6] I *C 102.350 38.080
chanx_right_in[7] I *C 102.350 42.160
chanx_right_in[8] I *C 102.350 13.600
chanx_right_in[9] I *C 102.350 46.240
chanx_right_in[10] I *C 102.350 19.040
chanx_right_in[11] I *C 102.350 16.320
chanx_right_in[12] I *C 102.350 31.960
chanx_right_in[13] I *C 102.350 59.840
chanx_right_in[14] I *C 102.350 24.480
chanx_right_in[15] I *C 102.350 33.320
chanx_right_in[16] I *C 102.350 9.520
chanx_right_in[17] I *C 102.350 40.800
chanx_right_in[18] I *C 102.350 51.680
chanx_right_in[19] I *C 102.350 48.960
right_top_grid_pin_42_[0] I *C 94.760 64.600
right_top_grid_pin_43_[0] I *C 92.000 64.600
right_top_grid_pin_44_[0] I *C 97.060 64.600
right_top_grid_pin_45_[0] I *C 100.280 64.600
right_top_grid_pin_46_[0] I *C 99.360 64.600
right_top_grid_pin_47_[0] I *C 95.680 64.600
right_top_grid_pin_48_[0] I *C 98.440 64.600
right_top_grid_pin_49_[0] I *C 98.440 64.600
right_bottom_grid_pin_1_[0] I *C 99.820 0.680
chanx_left_in[0] I *C 0.690 4.080
chanx_left_in[1] I *C 0.690 52.360
chanx_left_in[2] I *C 0.690 10.880
chanx_left_in[3] I *C 0.690 53.720
chanx_left_in[4] I *C 0.690 36.040
chanx_left_in[5] I *C 0.690 12.240
chanx_left_in[6] I *C 0.690 14.960
chanx_left_in[7] I *C 0.690 57.800
chanx_left_in[8] I *C 0.690 13.600
chanx_left_in[9] I *C 0.690 56.440
chanx_left_in[10] I *C 0.690 55.080
chanx_left_in[11] I *C 0.690 59.160
chanx_left_in[12] I *C 0.690 37.400
chanx_left_in[13] I *C 0.690 38.760
chanx_left_in[14] I *C 0.690 5.440
chanx_left_in[15] I *C 0.690 47.600
chanx_left_in[16] I *C 0.690 32.640
chanx_left_in[17] I *C 0.690 17.680
chanx_left_in[18] I *C 0.690 16.320
chanx_left_in[19] I *C 0.690 44.880
left_top_grid_pin_42_[0] I *C 11.040 64.600
left_top_grid_pin_43_[0] I *C 5.520 64.600
left_top_grid_pin_44_[0] I *C 4.600 64.600
left_top_grid_pin_45_[0] I *C 6.440 64.600
left_top_grid_pin_46_[0] I *C 3.680 64.600
left_top_grid_pin_47_[0] I *C 6.440 64.600
left_top_grid_pin_48_[0] I *C 8.740 64.600
left_top_grid_pin_49_[0] I *C 4.600 64.600
left_bottom_grid_pin_1_[0] I *C 11.040 0.680
ccff_head[0] I *C 100.740 0.680
chany_top_out[0] O *C 66.700 80.920
chany_top_out[1] O *C 40.480 80.920
chany_top_out[2] O *C 64.860 80.920
chany_top_out[3] O *C 38.640 80.920
chany_top_out[4] O *C 69.460 80.920
chany_top_out[5] O *C 57.040 80.920
chany_top_out[6] O *C 68.540 80.920
chany_top_out[7] O *C 53.360 80.920
chany_top_out[8] O *C 67.620 80.920
chany_top_out[9] O *C 43.240 80.920
chany_top_out[10] O *C 70.380 80.920
chany_top_out[11] O *C 48.300 80.920
chany_top_out[12] O *C 71.300 80.920
chany_top_out[13] O *C 27.600 80.920
chany_top_out[14] O *C 60.260 80.920
chany_top_out[15] O *C 46.000 80.920
chany_top_out[16] O *C 61.180 80.920
chany_top_out[17] O *C 41.400 80.920
chany_top_out[18] O *C 37.720 80.920
chany_top_out[19] O *C 46.920 80.920
chanx_right_out[0] O *C 102.350 10.880
chanx_right_out[1] O *C 102.350 58.480
chanx_right_out[2] O *C 102.350 54.400
chanx_right_out[3] O *C 102.350 57.120
chanx_right_out[4] O *C 102.350 27.880
chanx_right_out[5] O *C 102.350 61.880
chanx_right_out[6] O *C 102.350 34.680
chanx_right_out[7] O *C 102.350 39.440
chanx_right_out[8] O *C 102.350 26.520
chanx_right_out[9] O *C 102.350 47.600
chanx_right_out[10] O *C 102.350 20.400
chanx_right_out[11] O *C 102.350 53.040
chanx_right_out[12] O *C 102.350 30.600
chanx_right_out[13] O *C 102.350 55.760
chanx_right_out[14] O *C 102.350 23.120
chanx_right_out[15] O *C 102.350 44.880
chanx_right_out[16] O *C 102.350 36.040
chanx_right_out[17] O *C 102.350 50.320
chanx_right_out[18] O *C 102.350 21.760
chanx_right_out[19] O *C 102.350 43.520
chanx_left_out[0] O *C 0.690 6.800
chanx_left_out[1] O *C 0.690 60.520
chanx_left_out[2] O *C 0.690 20.400
chanx_left_out[3] O *C 0.690 49.640
chanx_left_out[4] O *C 0.690 26.520
chanx_left_out[5] O *C 0.690 61.880
chanx_left_out[6] O *C 0.690 28.560
chanx_left_out[7] O *C 0.690 42.840
chanx_left_out[8] O *C 0.690 21.760
chanx_left_out[9] O *C 0.690 40.120
chanx_left_out[10] O *C 0.690 24.480
chanx_left_out[11] O *C 0.690 41.480
chanx_left_out[12] O *C 0.690 31.280
chanx_left_out[13] O *C 0.690 51.000
chanx_left_out[14] O *C 0.690 23.120
chanx_left_out[15] O *C 0.690 46.240
chanx_left_out[16] O *C 0.690 8.160
chanx_left_out[17] O *C 0.690 34.680
chanx_left_out[18] O *C 0.690 19.040
chanx_left_out[19] O *C 0.690 29.920
ccff_tail[0] O *C 0.690 9.520
VDD I *C 51.520 40.800
VSS I *C 51.520 40.800

*D_NET top_left_grid_pin_35_[0] 0.01892044 //LENGTH 131.565 LUMPCC 0.005452805 DR

*CONN
*P top_left_grid_pin_35_[0] I *L 0.29796 *C 24.380 80.310
*I FTB_1__0:A I *L 0.001776 *C 24.840 77.520
*I mux_top_track_10\/mux_l1_in_0_:A1 I *L 0.00198 *C 64.400 23.460
*I mux_top_track_6\/mux_l1_in_0_:A1 I *L 0.00198 *C 59.900 18.020
*I mux_top_track_2\/mux_l1_in_0_:A1 I *L 0.00198 *C 50.505 20.060
*N top_left_grid_pin_35_[0]:5 *C 50.543 20.060
*N top_left_grid_pin_35_[0]:6 *C 51.015 20.060
*N top_left_grid_pin_35_[0]:7 *C 51.060 20.015
*N top_left_grid_pin_35_[0]:8 *C 59.900 18.020
*N top_left_grid_pin_35_[0]:9 *C 59.823 18.360
*N top_left_grid_pin_35_[0]:10 *C 64.377 23.433
*N top_left_grid_pin_35_[0]:11 *C 64.365 23.120
*N top_left_grid_pin_35_[0]:12 *C 58.465 23.120
*N top_left_grid_pin_35_[0]:13 *C 58.420 23.075
*N top_left_grid_pin_35_[0]:14 *C 58.420 18.405
*N top_left_grid_pin_35_[0]:15 *C 58.420 18.360
*N top_left_grid_pin_35_[0]:16 *C 51.105 18.360
*N top_left_grid_pin_35_[0]:17 *C 51.060 18.360
*N top_left_grid_pin_35_[0]:18 *C 51.060 10.258
*N top_left_grid_pin_35_[0]:19 *C 51.053 10.200
*N top_left_grid_pin_35_[0]:20 *C 34.980 10.200
*N top_left_grid_pin_35_[0]:21 *C 34.960 10.208
*N top_left_grid_pin_35_[0]:22 *C 34.960 60.035
*N top_left_grid_pin_35_[0]:23 *C 34.960 77.513
*N top_left_grid_pin_35_[0]:24 *C 34.940 77.520
*N top_left_grid_pin_35_[0]:25 *C 24.848 77.520
*N top_left_grid_pin_35_[0]:26 *C 24.840 77.520
*N top_left_grid_pin_35_[0]:27 *C 24.803 77.520
*N top_left_grid_pin_35_[0]:28 *C 24.425 77.520
*N top_left_grid_pin_35_[0]:29 *C 24.380 77.520

*CAP
0 top_left_grid_pin_35_[0] 0.0001678324
1 FTB_1__0:A 1e-06
2 mux_top_track_10\/mux_l1_in_0_:A1 1e-06
3 mux_top_track_6\/mux_l1_in_0_:A1 1e-06
4 mux_top_track_2\/mux_l1_in_0_:A1 1e-06
5 top_left_grid_pin_35_[0]:5 5.276033e-05
6 top_left_grid_pin_35_[0]:6 5.276033e-05
7 top_left_grid_pin_35_[0]:7 0.0001039279
8 top_left_grid_pin_35_[0]:8 6.335841e-05
9 top_left_grid_pin_35_[0]:9 0.0001376202
10 top_left_grid_pin_35_[0]:10 2.217491e-05
11 top_left_grid_pin_35_[0]:11 0.000406255
12 top_left_grid_pin_35_[0]:12 0.0003840801
13 top_left_grid_pin_35_[0]:13 0.0003421381
14 top_left_grid_pin_35_[0]:14 0.0003421381
15 top_left_grid_pin_35_[0]:15 0.0006634019
16 top_left_grid_pin_35_[0]:16 0.0005281962
17 top_left_grid_pin_35_[0]:17 0.0005451398
18 top_left_grid_pin_35_[0]:18 0.0004078196
19 top_left_grid_pin_35_[0]:19 0.0007999137
20 top_left_grid_pin_35_[0]:20 0.0007999137
21 top_left_grid_pin_35_[0]:21 0.002410239
22 top_left_grid_pin_35_[0]:22 0.002995294
23 top_left_grid_pin_35_[0]:23 0.0005850549
24 top_left_grid_pin_35_[0]:24 0.0006393646
25 top_left_grid_pin_35_[0]:25 0.0006393646
26 top_left_grid_pin_35_[0]:26 7.298893e-05
27 top_left_grid_pin_35_[0]:27 4.842944e-05
28 top_left_grid_pin_35_[0]:28 4.842944e-05
29 top_left_grid_pin_35_[0]:29 0.000205034
30 top_left_grid_pin_35_[0]:20 chanx_right_in[16]:29 0.000803121
31 top_left_grid_pin_35_[0]:21 chanx_right_in[16]:28 0.000398464
32 top_left_grid_pin_35_[0]:19 chanx_right_in[16]:30 0.000803121
33 top_left_grid_pin_35_[0]:22 chanx_right_in[16]:27 0.000398464
34 top_left_grid_pin_35_[0]:20 prog_clk[0]:339 1.545935e-05
35 top_left_grid_pin_35_[0]:20 prog_clk[0]:336 1.075217e-05
36 top_left_grid_pin_35_[0]:20 prog_clk[0]:335 1.398505e-06
37 top_left_grid_pin_35_[0]:20 prog_clk[0]:320 0.0001785534
38 top_left_grid_pin_35_[0]:20 prog_clk[0]:318 1.73161e-05
39 top_left_grid_pin_35_[0]:18 prog_clk[0]:315 2.455998e-05
40 top_left_grid_pin_35_[0]:18 prog_clk[0]:318 5.605209e-06
41 top_left_grid_pin_35_[0]:19 prog_clk[0]:317 1.73161e-05
42 top_left_grid_pin_35_[0]:19 prog_clk[0]:330 1.398505e-06
43 top_left_grid_pin_35_[0]:19 prog_clk[0]:324 1.545935e-05
44 top_left_grid_pin_35_[0]:19 prog_clk[0]:335 1.075217e-05
45 top_left_grid_pin_35_[0]:19 prog_clk[0]:319 0.0001785534
46 top_left_grid_pin_35_[0]:17 prog_clk[0]:316 2.455998e-05
47 top_left_grid_pin_35_[0]:17 prog_clk[0]:319 5.605209e-06
48 top_left_grid_pin_35_[0]:25 chany_top_in[19]:17 4.933346e-05
49 top_left_grid_pin_35_[0]:24 chany_top_in[19]:18 4.933346e-05
50 top_left_grid_pin_35_[0]:23 chany_top_in[19]:16 0.0003568924
51 top_left_grid_pin_35_[0]:21 chany_top_in[19]:15 4.225495e-05
52 top_left_grid_pin_35_[0]:21 chany_top_in[19]:9 0.0003067804
53 top_left_grid_pin_35_[0]:22 chany_top_in[19]:15 0.0006636727
54 top_left_grid_pin_35_[0]:22 chany_top_in[19]:16 4.225495e-05
55 top_left_grid_pin_35_[0]:18 mux_top_track_0/sky130_fd_sc_hd__mux2_1_2_X[0]:5 5.839107e-05
56 top_left_grid_pin_35_[0]:17 mux_top_track_0/sky130_fd_sc_hd__mux2_1_2_X[0]:4 5.839107e-05
57 top_left_grid_pin_35_[0]:12 mux_right_track_16/sky130_fd_sc_hd__mux2_1_0_X[0]:5 4.036816e-05
58 top_left_grid_pin_35_[0]:10 mux_right_track_16/sky130_fd_sc_hd__mux2_1_0_X[0]:3 1.288274e-05
59 top_left_grid_pin_35_[0]:11 mux_right_track_16/sky130_fd_sc_hd__mux2_1_0_X[0]:4 5.325091e-05
60 top_left_grid_pin_35_[0]:23 mux_top_track_28/sky130_fd_sc_hd__mux2_1_1_X[0]:8 0.0001883078
61 top_left_grid_pin_35_[0]:21 mux_top_track_28/sky130_fd_sc_hd__mux2_1_1_X[0]:9 0.0002159622
62 top_left_grid_pin_35_[0]:22 mux_top_track_28/sky130_fd_sc_hd__mux2_1_1_X[0]:8 0.0002159622
63 top_left_grid_pin_35_[0]:22 mux_top_track_28/sky130_fd_sc_hd__mux2_1_1_X[0]:9 0.0001883078

*RES
0 top_left_grid_pin_35_[0] top_left_grid_pin_35_[0]:29 0.002491072
1 top_left_grid_pin_35_[0]:26 top_left_grid_pin_35_[0]:25 0.00341
2 top_left_grid_pin_35_[0]:25 top_left_grid_pin_35_[0]:24 0.001581158
3 top_left_grid_pin_35_[0]:24 top_left_grid_pin_35_[0]:23 0.00341
4 top_left_grid_pin_35_[0]:23 top_left_grid_pin_35_[0]:22 0.002738141
5 top_left_grid_pin_35_[0]:20 top_left_grid_pin_35_[0]:19 0.002518025
6 top_left_grid_pin_35_[0]:21 top_left_grid_pin_35_[0]:20 0.00341
7 top_left_grid_pin_35_[0]:18 top_left_grid_pin_35_[0]:17 0.007234375
8 top_left_grid_pin_35_[0]:19 top_left_grid_pin_35_[0]:18 0.00341
9 top_left_grid_pin_35_[0]:27 FTB_1__0:A 0.152
10 top_left_grid_pin_35_[0]:28 top_left_grid_pin_35_[0]:27 0.0003370536
11 top_left_grid_pin_35_[0]:29 top_left_grid_pin_35_[0]:28 0.0045
12 top_left_grid_pin_35_[0]:29 top_left_grid_pin_35_[0]:26 0.0004107143
13 top_left_grid_pin_35_[0]:16 top_left_grid_pin_35_[0]:15 0.00653125
14 top_left_grid_pin_35_[0]:17 top_left_grid_pin_35_[0]:16 0.0045
15 top_left_grid_pin_35_[0]:17 top_left_grid_pin_35_[0]:7 0.001477679
16 top_left_grid_pin_35_[0]:15 top_left_grid_pin_35_[0]:14 0.0045
17 top_left_grid_pin_35_[0]:15 top_left_grid_pin_35_[0]:9 0.001252232
18 top_left_grid_pin_35_[0]:14 top_left_grid_pin_35_[0]:13 0.004169643
19 top_left_grid_pin_35_[0]:12 top_left_grid_pin_35_[0]:11 0.005267857
20 top_left_grid_pin_35_[0]:13 top_left_grid_pin_35_[0]:12 0.0045
21 top_left_grid_pin_35_[0]:10 mux_top_track_10\/mux_l1_in_0_:A1 0.152
22 top_left_grid_pin_35_[0]:8 mux_top_track_6\/mux_l1_in_0_:A1 0.152
23 top_left_grid_pin_35_[0]:6 top_left_grid_pin_35_[0]:5 0.000421875
24 top_left_grid_pin_35_[0]:7 top_left_grid_pin_35_[0]:6 0.0045
25 top_left_grid_pin_35_[0]:5 mux_top_track_2\/mux_l1_in_0_:A1 0.152
26 top_left_grid_pin_35_[0]:9 top_left_grid_pin_35_[0]:8 0.0001847826
27 top_left_grid_pin_35_[0]:11 top_left_grid_pin_35_[0]:10 0.0002111487
28 top_left_grid_pin_35_[0]:22 top_left_grid_pin_35_[0]:21 0.007806308

*END

*D_NET right_bottom_grid_pin_1_[0] 0.01030349 //LENGTH 81.535 LUMPCC 0.00134841 DR

*CONN
*P right_bottom_grid_pin_1_[0] I *L 0.29796 *C 99.820 1.290
*I mux_right_track_8\/mux_l2_in_2_:A1 I *L 0.00198 *C 89.240 30.940
*I mux_right_track_4\/mux_l1_in_5_:A0 I *L 0.001631 *C 89.530 49.980
*I mux_right_track_0\/mux_l2_in_2_:A1 I *L 0.00198 *C 89.890 56.100
*N right_bottom_grid_pin_1_[0]:4 *C 89.928 56.100
*N right_bottom_grid_pin_1_[0]:5 *C 94.715 56.100
*N right_bottom_grid_pin_1_[0]:6 *C 94.760 56.055
*N right_bottom_grid_pin_1_[0]:7 *C 89.530 49.980
*N right_bottom_grid_pin_1_[0]:8 *C 89.700 49.980
*N right_bottom_grid_pin_1_[0]:9 *C 89.700 49.935
*N right_bottom_grid_pin_1_[0]:10 *C 89.700 48.338
*N right_bottom_grid_pin_1_[0]:11 *C 89.708 48.280
*N right_bottom_grid_pin_1_[0]:12 *C 94.752 48.280
*N right_bottom_grid_pin_1_[0]:13 *C 94.760 48.280
*N right_bottom_grid_pin_1_[0]:14 *C 89.240 30.940
*N right_bottom_grid_pin_1_[0]:15 *C 90.160 30.940
*N right_bottom_grid_pin_1_[0]:16 *C 90.160 30.600
*N right_bottom_grid_pin_1_[0]:17 *C 94.715 30.600
*N right_bottom_grid_pin_1_[0]:18 *C 94.790 30.630
*N right_bottom_grid_pin_1_[0]:19 *C 94.760 30.940
*N right_bottom_grid_pin_1_[0]:20 *C 95.220 30.940
*N right_bottom_grid_pin_1_[0]:21 *C 95.220 15.018
*N right_bottom_grid_pin_1_[0]:22 *C 95.228 14.960
*N right_bottom_grid_pin_1_[0]:23 *C 96.133 14.960
*N right_bottom_grid_pin_1_[0]:24 *C 96.140 14.902
*N right_bottom_grid_pin_1_[0]:25 *C 96.140 2.085
*N right_bottom_grid_pin_1_[0]:26 *C 96.185 2.040
*N right_bottom_grid_pin_1_[0]:27 *C 99.775 2.040
*N right_bottom_grid_pin_1_[0]:28 *C 99.820 1.995

*CAP
0 right_bottom_grid_pin_1_[0] 4.889917e-05
1 mux_right_track_8\/mux_l2_in_2_:A1 1e-06
2 mux_right_track_4\/mux_l1_in_5_:A0 1e-06
3 mux_right_track_0\/mux_l2_in_2_:A1 1e-06
4 right_bottom_grid_pin_1_[0]:4 0.000332898
5 right_bottom_grid_pin_1_[0]:5 0.000332898
6 right_bottom_grid_pin_1_[0]:6 0.0003806158
7 right_bottom_grid_pin_1_[0]:7 5.747758e-05
8 right_bottom_grid_pin_1_[0]:8 6.253013e-05
9 right_bottom_grid_pin_1_[0]:9 0.000132136
10 right_bottom_grid_pin_1_[0]:10 0.000132136
11 right_bottom_grid_pin_1_[0]:11 0.0002260891
12 right_bottom_grid_pin_1_[0]:12 0.0002260891
13 right_bottom_grid_pin_1_[0]:13 0.001146478
14 right_bottom_grid_pin_1_[0]:14 0.0001183449
15 right_bottom_grid_pin_1_[0]:15 0.0001105468
16 right_bottom_grid_pin_1_[0]:16 0.0003247373
17 right_bottom_grid_pin_1_[0]:17 0.0002984246
18 right_bottom_grid_pin_1_[0]:18 2.354578e-05
19 right_bottom_grid_pin_1_[0]:19 0.000774536
20 right_bottom_grid_pin_1_[0]:20 0.000985821
21 right_bottom_grid_pin_1_[0]:21 0.0009630023
22 right_bottom_grid_pin_1_[0]:22 0.0001305628
23 right_bottom_grid_pin_1_[0]:23 0.0001305628
24 right_bottom_grid_pin_1_[0]:24 0.000675303
25 right_bottom_grid_pin_1_[0]:25 0.000675303
26 right_bottom_grid_pin_1_[0]:26 0.0003071233
27 right_bottom_grid_pin_1_[0]:27 0.0003071233
28 right_bottom_grid_pin_1_[0]:28 4.889917e-05
29 right_bottom_grid_pin_1_[0]:12 chanx_right_in[19] 0.0002959486
30 right_bottom_grid_pin_1_[0]:11 chanx_right_in[19]:8 0.0002959486
31 right_bottom_grid_pin_1_[0]:13 right_top_grid_pin_47_[0]:13 0.0001334508
32 right_bottom_grid_pin_1_[0]:13 right_top_grid_pin_47_[0]:14 4.524984e-05
33 right_bottom_grid_pin_1_[0]:13 right_top_grid_pin_47_[0]:15 5.597818e-05
34 right_bottom_grid_pin_1_[0]:13 right_top_grid_pin_47_[0]:22 2.151954e-05
35 right_bottom_grid_pin_1_[0]:6 right_top_grid_pin_47_[0]:22 5.597818e-05
36 right_bottom_grid_pin_1_[0]:19 right_top_grid_pin_47_[0]:10 0.0001334508
37 right_bottom_grid_pin_1_[0]:19 right_top_grid_pin_47_[0]:13 4.524984e-05
38 right_bottom_grid_pin_1_[0]:19 right_top_grid_pin_47_[0]:15 2.151954e-05
39 right_bottom_grid_pin_1_[0]:13 ropt_net_161:4 5.274213e-06
40 right_bottom_grid_pin_1_[0]:17 ropt_net_161:7 3.520674e-05
41 right_bottom_grid_pin_1_[0]:16 ropt_net_161:6 3.520674e-05
42 right_bottom_grid_pin_1_[0]:19 ropt_net_161:6 8.373124e-06
43 right_bottom_grid_pin_1_[0]:19 ropt_net_161:5 5.274213e-06
44 right_bottom_grid_pin_1_[0]:20 ropt_net_161:7 8.373124e-06
45 right_bottom_grid_pin_1_[0]:13 ropt_net_144:5 7.320399e-05
46 right_bottom_grid_pin_1_[0]:19 ropt_net_144:6 7.320399e-05

*RES
0 right_bottom_grid_pin_1_[0] right_bottom_grid_pin_1_[0]:28 0.0006294643
1 right_bottom_grid_pin_1_[0]:21 right_bottom_grid_pin_1_[0]:20 0.01421652
2 right_bottom_grid_pin_1_[0]:22 right_bottom_grid_pin_1_[0]:21 0.00341
3 right_bottom_grid_pin_1_[0]:24 right_bottom_grid_pin_1_[0]:23 0.00341
4 right_bottom_grid_pin_1_[0]:23 right_bottom_grid_pin_1_[0]:22 0.0001417833
5 right_bottom_grid_pin_1_[0]:26 right_bottom_grid_pin_1_[0]:25 0.0045
6 right_bottom_grid_pin_1_[0]:25 right_bottom_grid_pin_1_[0]:24 0.0114442
7 right_bottom_grid_pin_1_[0]:27 right_bottom_grid_pin_1_[0]:26 0.003205357
8 right_bottom_grid_pin_1_[0]:28 right_bottom_grid_pin_1_[0]:27 0.0045
9 right_bottom_grid_pin_1_[0]:13 right_bottom_grid_pin_1_[0]:12 0.00341
10 right_bottom_grid_pin_1_[0]:13 right_bottom_grid_pin_1_[0]:6 0.006941964
11 right_bottom_grid_pin_1_[0]:12 right_bottom_grid_pin_1_[0]:11 0.0007903833
12 right_bottom_grid_pin_1_[0]:10 right_bottom_grid_pin_1_[0]:9 0.001426339
13 right_bottom_grid_pin_1_[0]:11 right_bottom_grid_pin_1_[0]:10 0.00341
14 right_bottom_grid_pin_1_[0]:8 right_bottom_grid_pin_1_[0]:7 9.239132e-05
15 right_bottom_grid_pin_1_[0]:9 right_bottom_grid_pin_1_[0]:8 0.0045
16 right_bottom_grid_pin_1_[0]:7 mux_right_track_4\/mux_l1_in_5_:A0 0.152
17 right_bottom_grid_pin_1_[0]:5 right_bottom_grid_pin_1_[0]:4 0.004274554
18 right_bottom_grid_pin_1_[0]:6 right_bottom_grid_pin_1_[0]:5 0.0045
19 right_bottom_grid_pin_1_[0]:4 mux_right_track_0\/mux_l2_in_2_:A1 0.152
20 right_bottom_grid_pin_1_[0]:17 right_bottom_grid_pin_1_[0]:16 0.004066965
21 right_bottom_grid_pin_1_[0]:18 right_bottom_grid_pin_1_[0]:17 0.0045
22 right_bottom_grid_pin_1_[0]:14 mux_right_track_8\/mux_l2_in_2_:A1 0.152
23 right_bottom_grid_pin_1_[0]:15 right_bottom_grid_pin_1_[0]:14 0.0008214286
24 right_bottom_grid_pin_1_[0]:16 right_bottom_grid_pin_1_[0]:15 0.0003035715
25 right_bottom_grid_pin_1_[0]:19 right_bottom_grid_pin_1_[0]:18 0.00019375
26 right_bottom_grid_pin_1_[0]:19 right_bottom_grid_pin_1_[0]:13 0.01548214
27 right_bottom_grid_pin_1_[0]:20 right_bottom_grid_pin_1_[0]:19 0.0004107143

*END

*D_NET left_top_grid_pin_48_[0] 0.007201355 //LENGTH 54.080 LUMPCC 0.0003958723 DR

*CONN
*P left_top_grid_pin_48_[0] I *L 0.29796 *C 8.740 63.990
*I mux_left_track_1\/mux_l2_in_2_:A0 I *L 0.001631 *C 14.090 38.760
*I mux_left_track_25\/mux_l1_in_3_:A1 I *L 0.00198 *C 28.160 34.340
*I mux_left_track_5\/mux_l1_in_5_:A0 I *L 0.001631 *C 13.975 37.060
*N left_top_grid_pin_48_[0]:4 *C 13.850 37.060
*N left_top_grid_pin_48_[0]:5 *C 28.060 34.340
*N left_top_grid_pin_48_[0]:6 *C 28.060 34.340
*N left_top_grid_pin_48_[0]:7 *C 28.060 34.680
*N left_top_grid_pin_48_[0]:8 *C 28.053 34.680
*N left_top_grid_pin_48_[0]:9 *C 13.808 34.680
*N left_top_grid_pin_48_[0]:10 *C 13.800 34.738
*N left_top_grid_pin_48_[0]:11 *C 13.800 37.015
*N left_top_grid_pin_48_[0]:12 *C 13.755 37.060
*N left_top_grid_pin_48_[0]:13 *C 11.545 37.060
*N left_top_grid_pin_48_[0]:14 *C 11.500 37.105
*N left_top_grid_pin_48_[0]:15 *C 14.053 38.760
*N left_top_grid_pin_48_[0]:16 *C 11.545 38.760
*N left_top_grid_pin_48_[0]:17 *C 11.500 38.760
*N left_top_grid_pin_48_[0]:18 *C 11.500 53.380
*N left_top_grid_pin_48_[0]:19 *C 11.040 53.380
*N left_top_grid_pin_48_[0]:20 *C 11.040 61.495
*N left_top_grid_pin_48_[0]:21 *C 10.995 61.540
*N left_top_grid_pin_48_[0]:22 *C 8.785 61.540
*N left_top_grid_pin_48_[0]:23 *C 8.740 61.585

*CAP
0 left_top_grid_pin_48_[0] 0.0001451166
1 mux_left_track_1\/mux_l2_in_2_:A0 1e-06
2 mux_left_track_25\/mux_l1_in_3_:A1 1e-06
3 mux_left_track_5\/mux_l1_in_5_:A0 1e-06
4 left_top_grid_pin_48_[0]:4 2.770791e-05
5 left_top_grid_pin_48_[0]:5 3.235717e-05
6 left_top_grid_pin_48_[0]:6 5.198987e-05
7 left_top_grid_pin_48_[0]:7 5.594306e-05
8 left_top_grid_pin_48_[0]:8 0.00101321
9 left_top_grid_pin_48_[0]:9 0.00101321
10 left_top_grid_pin_48_[0]:10 0.0001553968
11 left_top_grid_pin_48_[0]:11 0.0001553968
12 left_top_grid_pin_48_[0]:12 0.0001877824
13 left_top_grid_pin_48_[0]:13 0.0001600745
14 left_top_grid_pin_48_[0]:14 0.0001061949
15 left_top_grid_pin_48_[0]:15 0.0002269785
16 left_top_grid_pin_48_[0]:16 0.0002269785
17 left_top_grid_pin_48_[0]:17 0.0008444401
18 left_top_grid_pin_48_[0]:18 0.000734736
19 left_top_grid_pin_48_[0]:19 0.000574754
20 left_top_grid_pin_48_[0]:20 0.0005443667
21 left_top_grid_pin_48_[0]:21 0.0002003662
22 left_top_grid_pin_48_[0]:22 0.0002003662
23 left_top_grid_pin_48_[0]:23 0.0001451166
24 left_top_grid_pin_48_[0]:16 mux_left_track_1/sky130_fd_sc_hd__mux2_1_5_X[0]:12 6.422029e-07
25 left_top_grid_pin_48_[0]:17 mux_left_track_1/sky130_fd_sc_hd__mux2_1_5_X[0]:11 6.011987e-05
26 left_top_grid_pin_48_[0]:15 mux_left_track_1/sky130_fd_sc_hd__mux2_1_5_X[0]:13 6.422029e-07
27 left_top_grid_pin_48_[0]:18 mux_left_track_1/sky130_fd_sc_hd__mux2_1_5_X[0]:10 6.011987e-05
28 left_top_grid_pin_48_[0]:17 mux_left_track_1/sky130_fd_sc_hd__mux2_1_9_X[0]:8 0.0001371741
29 left_top_grid_pin_48_[0]:18 mux_left_track_1/sky130_fd_sc_hd__mux2_1_9_X[0]:9 0.0001371741

*RES
0 left_top_grid_pin_48_[0] left_top_grid_pin_48_[0]:23 0.002147321
1 left_top_grid_pin_48_[0]:16 left_top_grid_pin_48_[0]:15 0.002238839
2 left_top_grid_pin_48_[0]:17 left_top_grid_pin_48_[0]:16 0.0045
3 left_top_grid_pin_48_[0]:17 left_top_grid_pin_48_[0]:14 0.001477679
4 left_top_grid_pin_48_[0]:15 mux_left_track_1\/mux_l2_in_2_:A0 0.152
5 left_top_grid_pin_48_[0]:13 left_top_grid_pin_48_[0]:12 0.001973214
6 left_top_grid_pin_48_[0]:14 left_top_grid_pin_48_[0]:13 0.0045
7 left_top_grid_pin_48_[0]:4 mux_left_track_5\/mux_l1_in_5_:A0 0.152
8 left_top_grid_pin_48_[0]:21 left_top_grid_pin_48_[0]:20 0.0045
9 left_top_grid_pin_48_[0]:20 left_top_grid_pin_48_[0]:19 0.007245536
10 left_top_grid_pin_48_[0]:22 left_top_grid_pin_48_[0]:21 0.001973214
11 left_top_grid_pin_48_[0]:23 left_top_grid_pin_48_[0]:22 0.0045
12 left_top_grid_pin_48_[0]:12 left_top_grid_pin_48_[0]:11 0.0045
13 left_top_grid_pin_48_[0]:12 left_top_grid_pin_48_[0]:4 8.482143e-05
14 left_top_grid_pin_48_[0]:11 left_top_grid_pin_48_[0]:10 0.002033482
15 left_top_grid_pin_48_[0]:10 left_top_grid_pin_48_[0]:9 0.00341
16 left_top_grid_pin_48_[0]:9 left_top_grid_pin_48_[0]:8 0.002231717
17 left_top_grid_pin_48_[0]:7 left_top_grid_pin_48_[0]:6 0.0001634615
18 left_top_grid_pin_48_[0]:8 left_top_grid_pin_48_[0]:7 0.00341
19 left_top_grid_pin_48_[0]:5 mux_left_track_25\/mux_l1_in_3_:A1 0.152
20 left_top_grid_pin_48_[0]:6 left_top_grid_pin_48_[0]:5 0.0045
21 left_top_grid_pin_48_[0]:19 left_top_grid_pin_48_[0]:18 0.0004107143
22 left_top_grid_pin_48_[0]:18 left_top_grid_pin_48_[0]:17 0.01305357

*END

*D_NET ccff_head[0] 0.00138594 //LENGTH 11.845 LUMPCC 0 DR

*CONN
*P ccff_head[0] I *L 0.29796 *C 100.740 1.325
*I mem_top_track_0\/sky130_fd_sc_hd__dfxbp_1_0_:D I *L 0.001695 *C 93.095 4.420
*N ccff_head[0]:2 *C 93.133 4.420
*N ccff_head[0]:3 *C 94.715 4.420
*N ccff_head[0]:4 *C 94.760 4.375
*N ccff_head[0]:5 *C 94.760 1.745
*N ccff_head[0]:6 *C 94.805 1.700
*N ccff_head[0]:7 *C 100.695 1.700
*N ccff_head[0]:8 *C 100.740 1.655

*CAP
0 ccff_head[0] 3.102931e-05
1 mem_top_track_0\/sky130_fd_sc_hd__dfxbp_1_0_:D 1e-06
2 ccff_head[0]:2 0.0001204944
3 ccff_head[0]:3 0.0001204944
4 ccff_head[0]:4 0.0001537654
5 ccff_head[0]:5 0.0001537654
6 ccff_head[0]:6 0.0003871808
7 ccff_head[0]:7 0.0003871808
8 ccff_head[0]:8 3.102931e-05

*RES
0 ccff_head[0] ccff_head[0]:8 0.0002946429
1 ccff_head[0]:7 ccff_head[0]:6 0.005258929
2 ccff_head[0]:8 ccff_head[0]:7 0.0045
3 ccff_head[0]:6 ccff_head[0]:5 0.0045
4 ccff_head[0]:5 ccff_head[0]:4 0.002348214
5 ccff_head[0]:3 ccff_head[0]:2 0.001412946
6 ccff_head[0]:4 ccff_head[0]:3 0.0045
7 ccff_head[0]:2 mem_top_track_0\/sky130_fd_sc_hd__dfxbp_1_0_:D 0.152

*END

*D_NET chany_top_out[1] 0.001363112 //LENGTH 11.220 LUMPCC 0 DR

*CONN
*I mux_top_track_2\/sky130_fd_sc_hd__buf_4_0_:X O *L 0 *C 42.725 72.080
*P chany_top_out[1] O *L 0.7423 *C 40.480 80.310
*N chany_top_out[1]:2 *C 40.480 72.465
*N chany_top_out[1]:3 *C 40.525 72.420
*N chany_top_out[1]:4 *C 42.320 72.420
*N chany_top_out[1]:5 *C 42.320 72.080
*N chany_top_out[1]:6 *C 42.688 72.080

*CAP
0 mux_top_track_2\/sky130_fd_sc_hd__buf_4_0_:X 1e-06
1 chany_top_out[1] 0.0004568984
2 chany_top_out[1]:2 0.0004568984
3 chany_top_out[1]:3 0.0001564973
4 chany_top_out[1]:4 0.0001850156
5 chany_top_out[1]:5 6.766028e-05
6 chany_top_out[1]:6 3.914203e-05

*RES
0 mux_top_track_2\/sky130_fd_sc_hd__buf_4_0_:X chany_top_out[1]:6 0.152
1 chany_top_out[1]:6 chany_top_out[1]:5 0.000328125
2 chany_top_out[1]:3 chany_top_out[1]:2 0.0045
3 chany_top_out[1]:2 chany_top_out[1] 0.007004465
4 chany_top_out[1]:4 chany_top_out[1]:3 0.001602679
5 chany_top_out[1]:5 chany_top_out[1]:4 0.0003035715

*END

*D_NET ropt_net_169 0.000739019 //LENGTH 5.635 LUMPCC 8.051546e-05 DR

*CONN
*I mux_top_track_6\/BUFT_P_104:X O *L 0 *C 43.485 78.200
*I ropt_mt_inst_762:A I *L 0.001767 *C 39.100 77.520
*N ropt_net_169:2 *C 39.138 77.520
*N ropt_net_169:3 *C 39.560 77.520
*N ropt_net_169:4 *C 39.560 78.200
*N ropt_net_169:5 *C 43.448 78.200

*CAP
0 mux_top_track_6\/BUFT_P_104:X 1e-06
1 ropt_mt_inst_762:A 1e-06
2 ropt_net_169:2 2.518351e-05
3 ropt_net_169:3 6.822404e-05
4 ropt_net_169:4 0.0003030683
5 ropt_net_169:5 0.0002600277
6 ropt_net_169:5 mux_top_track_34/sky130_fd_sc_hd__mux2_1_1_X[0]:6 1.559036e-05
7 ropt_net_169:2 mux_top_track_34/sky130_fd_sc_hd__mux2_1_1_X[0]:7 2.466737e-05
8 ropt_net_169:3 mux_top_track_34/sky130_fd_sc_hd__mux2_1_1_X[0]:6 2.466737e-05
9 ropt_net_169:4 mux_top_track_34/sky130_fd_sc_hd__mux2_1_1_X[0]:7 1.559036e-05

*RES
0 mux_top_track_6\/BUFT_P_104:X ropt_net_169:5 0.152
1 ropt_net_169:5 ropt_net_169:4 0.003470982
2 ropt_net_169:2 ropt_mt_inst_762:A 0.152
3 ropt_net_169:3 ropt_net_169:2 0.0003772321
4 ropt_net_169:4 ropt_net_169:3 0.000607143

*END

*D_NET chany_top_out[6] 0.001195447 //LENGTH 9.520 LUMPCC 0 DR

*CONN
*I mux_top_track_12\/sky130_fd_sc_hd__buf_4_0_:X O *L 0 *C 69.060 71.740
*P chany_top_out[6] O *L 0.7423 *C 68.540 80.275
*N chany_top_out[6]:2 *C 68.540 71.785
*N chany_top_out[6]:3 *C 68.585 71.740
*N chany_top_out[6]:4 *C 69.023 71.740

*CAP
0 mux_top_track_12\/sky130_fd_sc_hd__buf_4_0_:X 1e-06
1 chany_top_out[6] 0.0005448763
2 chany_top_out[6]:2 0.0005448763
3 chany_top_out[6]:3 5.234699e-05
4 chany_top_out[6]:4 5.234699e-05

*RES
0 mux_top_track_12\/sky130_fd_sc_hd__buf_4_0_:X chany_top_out[6]:4 0.152
1 chany_top_out[6]:4 chany_top_out[6]:3 0.000390625
2 chany_top_out[6]:3 chany_top_out[6]:2 0.0045
3 chany_top_out[6]:2 chany_top_out[6] 0.007580357

*END

*D_NET ropt_net_134 0.001278693 //LENGTH 9.845 LUMPCC 0.0002550109 DR

*CONN
*I mux_top_track_20\/BUFT_P_105:X O *L 0 *C 75.635 77.860
*I ropt_mt_inst_722:A I *L 0.001767 *C 66.700 77.520
*N ropt_net_134:2 *C 66.737 77.520
*N ropt_net_134:3 *C 67.620 77.520
*N ropt_net_134:4 *C 67.620 77.860
*N ropt_net_134:5 *C 75.597 77.860

*CAP
0 mux_top_track_20\/BUFT_P_105:X 1e-06
1 ropt_mt_inst_722:A 1e-06
2 ropt_net_134:2 6.890658e-05
3 ropt_net_134:3 9.428547e-05
4 ropt_net_134:4 0.0004419344
5 ropt_net_134:5 0.0004165556
6 ropt_net_134:5 ropt_net_170:2 0.0001275055
7 ropt_net_134:4 ropt_net_170:3 0.0001275055

*RES
0 mux_top_track_20\/BUFT_P_105:X ropt_net_134:5 0.152
1 ropt_net_134:2 ropt_mt_inst_722:A 0.152
2 ropt_net_134:5 ropt_net_134:4 0.007122768
3 ropt_net_134:3 ropt_net_134:2 0.0007879465
4 ropt_net_134:4 ropt_net_134:3 0.0003035715

*END

*D_NET chany_top_out[17] 0.001214253 //LENGTH 9.105 LUMPCC 0 DR

*CONN
*I mux_top_track_34\/sky130_fd_sc_hd__buf_4_0_:X O *L 0 *C 43.240 75.140
*P chany_top_out[17] O *L 0.7423 *C 41.400 80.315
*N chany_top_out[17]:2 *C 41.400 78.888
*N chany_top_out[17]:3 *C 41.420 78.880
*N chany_top_out[17]:4 *C 43.693 78.880
*N chany_top_out[17]:5 *C 43.700 78.823
*N chany_top_out[17]:6 *C 43.700 75.185
*N chany_top_out[17]:7 *C 43.655 75.140
*N chany_top_out[17]:8 *C 43.278 75.140

*CAP
0 mux_top_track_34\/sky130_fd_sc_hd__buf_4_0_:X 1e-06
1 chany_top_out[17] 0.0001130281
2 chany_top_out[17]:2 0.0001130281
3 chany_top_out[17]:3 0.000184008
4 chany_top_out[17]:4 0.000184008
5 chany_top_out[17]:5 0.0002605956
6 chany_top_out[17]:6 0.0002605956
7 chany_top_out[17]:7 4.899476e-05
8 chany_top_out[17]:8 4.899476e-05

*RES
0 mux_top_track_34\/sky130_fd_sc_hd__buf_4_0_:X chany_top_out[17]:8 0.152
1 chany_top_out[17]:3 chany_top_out[17]:2 0.00341
2 chany_top_out[17]:2 chany_top_out[17] 0.0002236416
3 chany_top_out[17]:5 chany_top_out[17]:4 0.00341
4 chany_top_out[17]:4 chany_top_out[17]:3 0.000356025
5 chany_top_out[17]:7 chany_top_out[17]:6 0.0045
6 chany_top_out[17]:6 chany_top_out[17]:5 0.003247768
7 chany_top_out[17]:8 chany_top_out[17]:7 0.0003370536

*END
