*SPEF "1481-1998"
*DESIGN "sb_1__2_"
*DATE "Tue Oct 27 11:35:07 2020"
*
*
*
*
*DIVIDER /
*DELIMITER :
*T_UNIT 1 NS
*C_UNIT 1 PF
*R_UNIT 1 KOHM
*L_UNIT 1 HENRY

// XY_UNIT 1 UM
// PARASITIC_TECH nominal at 25.000 degree

*PORTS
prog_clk[0] I *C 2.300 17.000
chanx_right_in[0] I *C 102.350 72.080
chanx_right_in[1] I *C 102.350 54.400
chanx_right_in[2] I *C 102.350 73.440
chanx_right_in[3] I *C 102.350 69.360
chanx_right_in[4] I *C 102.350 70.720
chanx_right_in[5] I *C 102.350 29.920
chanx_right_in[6] I *C 102.350 24.480
chanx_right_in[7] I *C 102.350 74.800
chanx_right_in[8] I *C 102.350 55.760
chanx_right_in[9] I *C 102.350 28.560
chanx_right_in[10] I *C 102.350 52.360
chanx_right_in[11] I *C 102.350 36.720
chanx_right_in[12] I *C 102.350 47.600
chanx_right_in[13] I *C 102.350 27.200
chanx_right_in[14] I *C 102.350 25.840
chanx_right_in[15] I *C 102.350 44.880
chanx_right_in[16] I *C 102.350 32.640
chanx_right_in[17] I *C 102.350 50.320
chanx_right_in[18] I *C 102.350 46.240
chanx_right_in[19] I *C 102.350 35.360
right_top_grid_pin_1_[0] I *C 100.740 80.920
chany_bottom_in[0] I *C 55.200 0.680
chany_bottom_in[1] I *C 39.560 0.680
chany_bottom_in[2] I *C 68.540 0.680
chany_bottom_in[3] I *C 59.800 0.680
chany_bottom_in[4] I *C 69.460 0.680
chany_bottom_in[5] I *C 50.140 0.680
chany_bottom_in[6] I *C 70.380 0.680
chany_bottom_in[7] I *C 60.720 0.680
chany_bottom_in[8] I *C 67.620 0.680
chany_bottom_in[9] I *C 61.640 0.680
chany_bottom_in[10] I *C 46.000 0.680
chany_bottom_in[11] I *C 58.420 0.680
chany_bottom_in[12] I *C 37.720 0.680
chany_bottom_in[13] I *C 40.480 0.680
chany_bottom_in[14] I *C 52.440 0.680
chany_bottom_in[15] I *C 48.760 0.680
chany_bottom_in[16] I *C 38.640 0.680
chany_bottom_in[17] I *C 41.400 0.680
chany_bottom_in[18] I *C 45.080 0.680
chany_bottom_in[19] I *C 72.220 0.680
bottom_left_grid_pin_34_[0] I *C 11.040 17.000
bottom_left_grid_pin_35_[0] I *C 11.040 17.000
bottom_left_grid_pin_36_[0] I *C 22.540 0.680
bottom_left_grid_pin_37_[0] I *C 20.700 0.680
bottom_left_grid_pin_38_[0] I *C 21.620 0.680
bottom_left_grid_pin_39_[0] I *C 8.740 17.000
bottom_left_grid_pin_40_[0] I *C 6.900 17.000
bottom_left_grid_pin_41_[0] I *C 7.820 17.000
chanx_left_in[0] I *C 0.690 31.280
chanx_left_in[1] I *C 0.690 21.760
chanx_left_in[2] I *C 0.690 34.000
chanx_left_in[3] I *C 0.690 35.360
chanx_left_in[4] I *C 0.690 72.080
chanx_left_in[5] I *C 0.690 53.040
chanx_left_in[6] I *C 0.690 51.680
chanx_left_in[7] I *C 0.690 47.600
chanx_left_in[8] I *C 0.690 48.960
chanx_left_in[9] I *C 0.690 29.920
chanx_left_in[10] I *C 0.690 74.800
chanx_left_in[11] I *C 0.690 44.880
chanx_left_in[12] I *C 0.690 70.720
chanx_left_in[13] I *C 0.690 54.400
chanx_left_in[14] I *C 0.690 32.640
chanx_left_in[15] I *C 0.690 68.000
chanx_left_in[16] I *C 0.690 73.440
chanx_left_in[17] I *C 0.690 25.840
chanx_left_in[18] I *C 0.690 20.400
chanx_left_in[19] I *C 0.690 55.760
left_top_grid_pin_1_[0] I *C 2.300 80.920
ccff_head[0] I *C 99.820 80.920
chanx_right_out[0] O *C 102.350 48.960
chanx_right_out[1] O *C 102.350 38.080
chanx_right_out[2] O *C 102.350 31.280
chanx_right_out[3] O *C 102.350 68.000
chanx_right_out[4] O *C 102.350 34.000
chanx_right_out[5] O *C 102.350 57.120
chanx_right_out[6] O *C 102.350 66.640
chanx_right_out[7] O *C 102.350 58.480
chanx_right_out[8] O *C 102.350 65.280
chanx_right_out[9] O *C 102.350 42.160
chanx_right_out[10] O *C 102.350 20.400
chanx_right_out[11] O *C 102.350 59.840
chanx_right_out[12] O *C 102.350 21.760
chanx_right_out[13] O *C 102.350 39.440
chanx_right_out[14] O *C 102.350 63.920
chanx_right_out[15] O *C 102.350 40.800
chanx_right_out[16] O *C 102.350 43.520
chanx_right_out[17] O *C 102.350 61.200
chanx_right_out[18] O *C 102.350 62.560
chanx_right_out[19] O *C 102.350 23.120
chany_bottom_out[0] O *C 56.120 0.680
chany_bottom_out[1] O *C 43.240 0.680
chany_bottom_out[2] O *C 57.500 0.680
chany_bottom_out[3] O *C 46.000 0.680
chany_bottom_out[4] O *C 66.700 0.680
chany_bottom_out[5] O *C 51.060 0.680
chany_bottom_out[6] O *C 63.020 0.680
chany_bottom_out[7] O *C 52.900 0.680
chany_bottom_out[8] O *C 65.780 0.680
chany_bottom_out[9] O *C 47.840 0.680
chany_bottom_out[10] O *C 63.940 0.680
chany_bottom_out[11] O *C 46.920 0.680
chany_bottom_out[12] O *C 57.040 0.680
chany_bottom_out[13] O *C 35.880 0.680
chany_bottom_out[14] O *C 64.860 0.680
chany_bottom_out[15] O *C 54.280 0.680
chany_bottom_out[16] O *C 71.300 0.680
chany_bottom_out[17] O *C 55.200 0.680
chany_bottom_out[18] O *C 51.980 0.680
chany_bottom_out[19] O *C 42.320 0.680
chanx_left_out[0] O *C 0.690 46.240
chanx_left_out[1] O *C 0.690 36.720
chanx_left_out[2] O *C 0.690 28.560
chanx_left_out[3] O *C 0.690 23.120
chanx_left_out[4] O *C 0.690 27.200
chanx_left_out[5] O *C 0.690 43.520
chanx_left_out[6] O *C 0.690 38.080
chanx_left_out[7] O *C 0.690 42.160
chanx_left_out[8] O *C 0.690 66.640
chanx_left_out[9] O *C 0.690 39.440
chanx_left_out[10] O *C 0.690 50.320
chanx_left_out[11] O *C 0.690 58.480
chanx_left_out[12] O *C 0.690 57.120
chanx_left_out[13] O *C 0.690 65.280
chanx_left_out[14] O *C 0.690 59.840
chanx_left_out[15] O *C 0.690 40.800
chanx_left_out[16] O *C 0.690 24.480
chanx_left_out[17] O *C 0.690 63.920
chanx_left_out[18] O *C 0.690 61.200
chanx_left_out[19] O *C 0.690 62.560
ccff_tail[0] O *C 0.690 69.360
VDD I *C 51.520 40.800
VSS I *C 51.520 40.800

*D_NET chanx_right_in[2] 0.02202391 //LENGTH 151.940 LUMPCC 0.003304691 DR

*CONN
*P chanx_right_in[2] I *L 0.29796 *C 101.810 73.440
*I mux_left_track_1\/mux_l1_in_0_:A1 I *L 0.00198 *C 36.245 34.340
*I FTB_1__0:A I *L 0.001776 *C 8.280 20.400
*I mux_bottom_track_1\/mux_l1_in_0_:A1 I *L 0.00198 *C 25.205 25.500
*N chanx_right_in[2]:4 *C 25.205 25.500
*N chanx_right_in[2]:5 *C 8.280 20.415
*N chanx_right_in[2]:6 *C 8.280 20.740
*N chanx_right_in[2]:7 *C 8.280 20.785
*N chanx_right_in[2]:8 *C 8.280 22.440
*N chanx_right_in[2]:9 *C 8.740 22.440
*N chanx_right_in[2]:10 *C 8.740 24.422
*N chanx_right_in[2]:11 *C 8.748 24.480
*N chanx_right_in[2]:12 *C 15.173 24.480
*N chanx_right_in[2]:13 *C 15.180 24.538
*N chanx_right_in[2]:14 *C 15.180 25.795
*N chanx_right_in[2]:15 *C 15.225 25.840
*N chanx_right_in[2]:16 *C 25.300 25.840
*N chanx_right_in[2]:17 *C 25.715 25.840
*N chanx_right_in[2]:18 *C 25.760 25.885
*N chanx_right_in[2]:19 *C 25.760 33.943
*N chanx_right_in[2]:20 *C 25.768 34.000
*N chanx_right_in[2]:21 *C 36.245 34.340
*N chanx_right_in[2]:22 *C 36.340 34.340
*N chanx_right_in[2]:23 *C 36.340 34.000
*N chanx_right_in[2]:24 *C 36.340 34.000
*N chanx_right_in[2]:25 *C 43.220 34.000
*N chanx_right_in[2]:26 *C 43.240 34.008
*N chanx_right_in[2]:27 *C 43.240 42.833
*N chanx_right_in[2]:28 *C 43.260 42.840
*N chanx_right_in[2]:29 *C 71.740 42.840
*N chanx_right_in[2]:30 *C 71.760 42.848
*N chanx_right_in[2]:31 *C 71.760 61.193
*N chanx_right_in[2]:32 *C 71.780 61.200
*N chanx_right_in[2]:33 *C 96.593 61.200
*N chanx_right_in[2]:34 *C 96.600 61.258
*N chanx_right_in[2]:35 *C 96.600 73.383
*N chanx_right_in[2]:36 *C 96.608 73.440

*CAP
0 chanx_right_in[2] 0.0003794618
1 mux_left_track_1\/mux_l1_in_0_:A1 1e-06
2 FTB_1__0:A 1e-06
3 mux_bottom_track_1\/mux_l1_in_0_:A1 1e-06
4 chanx_right_in[2]:4 6.159364e-05
5 chanx_right_in[2]:5 3.972016e-05
6 chanx_right_in[2]:6 7.678683e-05
7 chanx_right_in[2]:7 0.0001066502
8 chanx_right_in[2]:8 0.0001355206
9 chanx_right_in[2]:9 0.0001331015
10 chanx_right_in[2]:10 0.0001042311
11 chanx_right_in[2]:11 0.0005460131
12 chanx_right_in[2]:12 0.0005460131
13 chanx_right_in[2]:13 6.621537e-05
14 chanx_right_in[2]:14 6.621537e-05
15 chanx_right_in[2]:15 0.0006363605
16 chanx_right_in[2]:16 0.0007082128
17 chanx_right_in[2]:17 4.204887e-05
18 chanx_right_in[2]:18 0.0004262055
19 chanx_right_in[2]:19 0.0004262055
20 chanx_right_in[2]:20 0.0006757643
21 chanx_right_in[2]:21 2.942229e-05
22 chanx_right_in[2]:22 5.440495e-05
23 chanx_right_in[2]:23 5.860901e-05
24 chanx_right_in[2]:24 0.00121259
25 chanx_right_in[2]:25 0.000536826
26 chanx_right_in[2]:26 0.0009170053
27 chanx_right_in[2]:27 0.0009170053
28 chanx_right_in[2]:28 0.001489132
29 chanx_right_in[2]:29 0.001489132
30 chanx_right_in[2]:30 0.001028501
31 chanx_right_in[2]:31 0.001028501
32 chanx_right_in[2]:32 0.001498947
33 chanx_right_in[2]:33 0.001498947
34 chanx_right_in[2]:34 0.0007007074
35 chanx_right_in[2]:35 0.0007007074
36 chanx_right_in[2]:36 0.0003794618
37 chanx_right_in[2]:28 chanx_left_in[8]:26 2.632888e-05
38 chanx_right_in[2]:28 chanx_left_in[8]:28 0.0002524291
39 chanx_right_in[2]:28 chanx_left_in[8]:20 5.248994e-07
40 chanx_right_in[2]:28 chanx_left_in[8]:27 0.0001231112
41 chanx_right_in[2]:29 chanx_left_in[8]:26 0.0001231112
42 chanx_right_in[2]:29 chanx_left_in[8]:19 5.248994e-07
43 chanx_right_in[2]:29 chanx_left_in[8]:21 2.632888e-05
44 chanx_right_in[2]:29 chanx_left_in[8]:27 0.0002524291
45 chanx_right_in[2]:15 prog_clk[0]:520 1.097014e-05
46 chanx_right_in[2]:14 prog_clk[0]:521 2.212721e-05
47 chanx_right_in[2]:13 prog_clk[0]:522 2.212721e-05
48 chanx_right_in[2]:25 prog_clk[0]:411 1.856286e-05
49 chanx_right_in[2]:28 prog_clk[0]:401 4.800781e-05
50 chanx_right_in[2]:28 prog_clk[0]:400 0.0001081717
51 chanx_right_in[2]:28 prog_clk[0]:318 0.0002127972
52 chanx_right_in[2]:29 prog_clk[0]:400 4.800781e-05
53 chanx_right_in[2]:29 prog_clk[0]:396 0.0001081717
54 chanx_right_in[2]:29 prog_clk[0]:317 0.0002127972
55 chanx_right_in[2]:24 prog_clk[0]:412 1.856286e-05
56 chanx_right_in[2]:19 prog_clk[0]:476 2.660602e-05
57 chanx_right_in[2]:18 prog_clk[0]:477 2.660602e-05
58 chanx_right_in[2]:16 prog_clk[0]:519 1.097014e-05
59 chanx_right_in[2]:30 chany_bottom_in[19]:16 0.0002884641
60 chanx_right_in[2]:31 chany_bottom_in[19]:15 0.0002884641
61 chanx_right_in[2]:10 mux_tree_tapbuf_size7_mem_0_ccff_tail[0]:6 4.263768e-05
62 chanx_right_in[2]:9 mux_tree_tapbuf_size7_mem_0_ccff_tail[0]:7 4.263768e-05
63 chanx_right_in[2]:19 mux_tree_tapbuf_size7_mem_1_ccff_tail[0]:4 4.213051e-05
64 chanx_right_in[2]:18 mux_tree_tapbuf_size7_mem_1_ccff_tail[0]:5 4.213051e-05
65 chanx_right_in[2]:24 mux_left_track_1/sky130_fd_sc_hd__mux2_1_4_X[0]:8 0.0001160819
66 chanx_right_in[2]:19 mux_left_track_1/sky130_fd_sc_hd__mux2_1_4_X[0]:9 5.553044e-07
67 chanx_right_in[2]:20 mux_left_track_1/sky130_fd_sc_hd__mux2_1_4_X[0]:7 0.0001160819
68 chanx_right_in[2]:18 mux_left_track_1/sky130_fd_sc_hd__mux2_1_4_X[0]:10 5.553044e-07
69 chanx_right_in[2]:28 mux_bottom_track_19/sky130_fd_sc_hd__mux2_1_2_X[0]:10 0.0001420398
70 chanx_right_in[2]:29 mux_bottom_track_19/sky130_fd_sc_hd__mux2_1_2_X[0]:11 0.0001420398
71 chanx_right_in[2]:34 ropt_net_204:3 6.864343e-05
72 chanx_right_in[2]:35 ropt_net_204:4 6.864343e-05
73 chanx_right_in[2]:32 BUF_net_83:6 0.000102156
74 chanx_right_in[2]:33 BUF_net_83:5 0.000102156

*RES
0 chanx_right_in[2] chanx_right_in[2]:36 0.0008150582
1 chanx_right_in[2]:15 chanx_right_in[2]:14 0.0045
2 chanx_right_in[2]:14 chanx_right_in[2]:13 0.001122768
3 chanx_right_in[2]:13 chanx_right_in[2]:12 0.00341
4 chanx_right_in[2]:12 chanx_right_in[2]:11 0.001006583
5 chanx_right_in[2]:10 chanx_right_in[2]:9 0.001770089
6 chanx_right_in[2]:11 chanx_right_in[2]:10 0.00341
7 chanx_right_in[2]:6 chanx_right_in[2]:5 0.0001766304
8 chanx_right_in[2]:7 chanx_right_in[2]:6 0.0045
9 chanx_right_in[2]:5 FTB_1__0:A 0.152
10 chanx_right_in[2]:25 chanx_right_in[2]:24 0.001077867
11 chanx_right_in[2]:26 chanx_right_in[2]:25 0.00341
12 chanx_right_in[2]:28 chanx_right_in[2]:27 0.00341
13 chanx_right_in[2]:27 chanx_right_in[2]:26 0.001382583
14 chanx_right_in[2]:29 chanx_right_in[2]:28 0.004461866
15 chanx_right_in[2]:30 chanx_right_in[2]:29 0.00341
16 chanx_right_in[2]:32 chanx_right_in[2]:31 0.00341
17 chanx_right_in[2]:31 chanx_right_in[2]:30 0.00287405
18 chanx_right_in[2]:34 chanx_right_in[2]:33 0.00341
19 chanx_right_in[2]:33 chanx_right_in[2]:32 0.003887292
20 chanx_right_in[2]:35 chanx_right_in[2]:34 0.01082589
21 chanx_right_in[2]:36 chanx_right_in[2]:35 0.00341
22 chanx_right_in[2]:23 chanx_right_in[2]:22 0.0001634615
23 chanx_right_in[2]:24 chanx_right_in[2]:23 0.00341
24 chanx_right_in[2]:24 chanx_right_in[2]:20 0.001656358
25 chanx_right_in[2]:21 mux_left_track_1\/mux_l1_in_0_:A1 0.152
26 chanx_right_in[2]:22 chanx_right_in[2]:21 0.0045
27 chanx_right_in[2]:4 mux_bottom_track_1\/mux_l1_in_0_:A1 0.152
28 chanx_right_in[2]:19 chanx_right_in[2]:18 0.007194197
29 chanx_right_in[2]:20 chanx_right_in[2]:19 0.00341
30 chanx_right_in[2]:17 chanx_right_in[2]:16 0.0003705357
31 chanx_right_in[2]:18 chanx_right_in[2]:17 0.0045
32 chanx_right_in[2]:16 chanx_right_in[2]:15 0.008995537
33 chanx_right_in[2]:16 chanx_right_in[2]:4 0.0003035715
34 chanx_right_in[2]:8 chanx_right_in[2]:7 0.001477679
35 chanx_right_in[2]:9 chanx_right_in[2]:8 0.0004107143

*END

*D_NET mux_bottom_track_13/sky130_fd_sc_hd__mux2_1_0_X[0] 0.0003732531 //LENGTH 2.865 LUMPCC 0 DR

*CONN
*I mux_bottom_track_13\/mux_l1_in_0_:X O *L 0 *C 30.185 52.700
*I mux_bottom_track_13\/mux_l2_in_0_:A1 I *L 0.00198 *C 32.760 52.700
*N mux_bottom_track_13/sky130_fd_sc_hd__mux2_1_0_X[0]:2 *C 32.723 52.700
*N mux_bottom_track_13/sky130_fd_sc_hd__mux2_1_0_X[0]:3 *C 30.223 52.700

*CAP
0 mux_bottom_track_13\/mux_l1_in_0_:X 1e-06
1 mux_bottom_track_13\/mux_l2_in_0_:A1 1e-06
2 mux_bottom_track_13/sky130_fd_sc_hd__mux2_1_0_X[0]:2 0.0001856266
3 mux_bottom_track_13/sky130_fd_sc_hd__mux2_1_0_X[0]:3 0.0001856266

*RES
0 mux_bottom_track_13\/mux_l1_in_0_:X mux_bottom_track_13/sky130_fd_sc_hd__mux2_1_0_X[0]:3 0.152
1 mux_bottom_track_13/sky130_fd_sc_hd__mux2_1_0_X[0]:2 mux_bottom_track_13\/mux_l2_in_0_:A1 0.152
2 mux_bottom_track_13/sky130_fd_sc_hd__mux2_1_0_X[0]:3 mux_bottom_track_13/sky130_fd_sc_hd__mux2_1_0_X[0]:2 0.002232143

*END

*D_NET mux_bottom_track_17/sky130_fd_sc_hd__mux2_1_0_X[0] 0.0007808071 //LENGTH 5.030 LUMPCC 0.0003517315 DR

*CONN
*I mux_bottom_track_17\/mux_l1_in_0_:X O *L 0 *C 61.925 55.080
*I mux_bottom_track_17\/mux_l2_in_0_:A1 I *L 0.00198 *C 62.200 50.660
*N mux_bottom_track_17/sky130_fd_sc_hd__mux2_1_0_X[0]:2 *C 62.100 50.660
*N mux_bottom_track_17/sky130_fd_sc_hd__mux2_1_0_X[0]:3 *C 62.100 50.705
*N mux_bottom_track_17/sky130_fd_sc_hd__mux2_1_0_X[0]:4 *C 62.100 55.035
*N mux_bottom_track_17/sky130_fd_sc_hd__mux2_1_0_X[0]:5 *C 62.100 55.080
*N mux_bottom_track_17/sky130_fd_sc_hd__mux2_1_0_X[0]:6 *C 61.925 55.080

*CAP
0 mux_bottom_track_17\/mux_l1_in_0_:X 1e-06
1 mux_bottom_track_17\/mux_l2_in_0_:A1 1e-06
2 mux_bottom_track_17/sky130_fd_sc_hd__mux2_1_0_X[0]:2 3.440624e-05
3 mux_bottom_track_17/sky130_fd_sc_hd__mux2_1_0_X[0]:3 0.0001339498
4 mux_bottom_track_17/sky130_fd_sc_hd__mux2_1_0_X[0]:4 0.0001339498
5 mux_bottom_track_17/sky130_fd_sc_hd__mux2_1_0_X[0]:5 6.280384e-05
6 mux_bottom_track_17/sky130_fd_sc_hd__mux2_1_0_X[0]:6 6.196592e-05
7 mux_bottom_track_17/sky130_fd_sc_hd__mux2_1_0_X[0]:3 right_top_grid_pin_1_[0]:6 5.783249e-05
8 mux_bottom_track_17/sky130_fd_sc_hd__mux2_1_0_X[0]:3 right_top_grid_pin_1_[0]:8 6.407686e-05
9 mux_bottom_track_17/sky130_fd_sc_hd__mux2_1_0_X[0]:4 right_top_grid_pin_1_[0]:8 5.783249e-05
10 mux_bottom_track_17/sky130_fd_sc_hd__mux2_1_0_X[0]:4 right_top_grid_pin_1_[0]:9 6.407686e-05
11 mux_bottom_track_17/sky130_fd_sc_hd__mux2_1_0_X[0]:3 mux_bottom_track_17/sky130_fd_sc_hd__mux2_1_1_X[0]:4 5.395638e-05
12 mux_bottom_track_17/sky130_fd_sc_hd__mux2_1_0_X[0]:4 mux_bottom_track_17/sky130_fd_sc_hd__mux2_1_1_X[0]:5 5.395638e-05

*RES
0 mux_bottom_track_17\/mux_l1_in_0_:X mux_bottom_track_17/sky130_fd_sc_hd__mux2_1_0_X[0]:6 0.152
1 mux_bottom_track_17/sky130_fd_sc_hd__mux2_1_0_X[0]:2 mux_bottom_track_17\/mux_l2_in_0_:A1 0.152
2 mux_bottom_track_17/sky130_fd_sc_hd__mux2_1_0_X[0]:3 mux_bottom_track_17/sky130_fd_sc_hd__mux2_1_0_X[0]:2 0.0045
3 mux_bottom_track_17/sky130_fd_sc_hd__mux2_1_0_X[0]:5 mux_bottom_track_17/sky130_fd_sc_hd__mux2_1_0_X[0]:4 0.0045
4 mux_bottom_track_17/sky130_fd_sc_hd__mux2_1_0_X[0]:4 mux_bottom_track_17/sky130_fd_sc_hd__mux2_1_0_X[0]:3 0.003866072
5 mux_bottom_track_17/sky130_fd_sc_hd__mux2_1_0_X[0]:6 mux_bottom_track_17/sky130_fd_sc_hd__mux2_1_0_X[0]:5 9.51087e-05

*END

*D_NET mux_bottom_track_23/sky130_fd_sc_hd__mux2_1_1_X[0] 0.0006410125 //LENGTH 5.155 LUMPCC 8.019178e-05 DR

*CONN
*I mux_bottom_track_23\/mux_l1_in_1_:X O *L 0 *C 57.215 23.120
*I mux_bottom_track_23\/mux_l2_in_0_:A0 I *L 0.001631 *C 55.030 21.080
*N mux_bottom_track_23/sky130_fd_sc_hd__mux2_1_1_X[0]:2 *C 55.068 21.080
*N mux_bottom_track_23/sky130_fd_sc_hd__mux2_1_1_X[0]:3 *C 56.535 21.080
*N mux_bottom_track_23/sky130_fd_sc_hd__mux2_1_1_X[0]:4 *C 56.580 21.125
*N mux_bottom_track_23/sky130_fd_sc_hd__mux2_1_1_X[0]:5 *C 56.580 23.075
*N mux_bottom_track_23/sky130_fd_sc_hd__mux2_1_1_X[0]:6 *C 56.625 23.120
*N mux_bottom_track_23/sky130_fd_sc_hd__mux2_1_1_X[0]:7 *C 57.178 23.120

*CAP
0 mux_bottom_track_23\/mux_l1_in_1_:X 1e-06
1 mux_bottom_track_23\/mux_l2_in_0_:A0 1e-06
2 mux_bottom_track_23/sky130_fd_sc_hd__mux2_1_1_X[0]:2 0.0001169105
3 mux_bottom_track_23/sky130_fd_sc_hd__mux2_1_1_X[0]:3 0.0001169105
4 mux_bottom_track_23/sky130_fd_sc_hd__mux2_1_1_X[0]:4 9.771352e-05
5 mux_bottom_track_23/sky130_fd_sc_hd__mux2_1_1_X[0]:5 9.771352e-05
6 mux_bottom_track_23/sky130_fd_sc_hd__mux2_1_1_X[0]:6 6.478637e-05
7 mux_bottom_track_23/sky130_fd_sc_hd__mux2_1_1_X[0]:7 6.478637e-05
8 mux_bottom_track_23/sky130_fd_sc_hd__mux2_1_1_X[0]:4 mux_tree_tapbuf_size3_6_sram[1]:7 4.009589e-05
9 mux_bottom_track_23/sky130_fd_sc_hd__mux2_1_1_X[0]:5 mux_tree_tapbuf_size3_6_sram[1]:8 4.009589e-05

*RES
0 mux_bottom_track_23\/mux_l1_in_1_:X mux_bottom_track_23/sky130_fd_sc_hd__mux2_1_1_X[0]:7 0.152
1 mux_bottom_track_23/sky130_fd_sc_hd__mux2_1_1_X[0]:2 mux_bottom_track_23\/mux_l2_in_0_:A0 0.152
2 mux_bottom_track_23/sky130_fd_sc_hd__mux2_1_1_X[0]:3 mux_bottom_track_23/sky130_fd_sc_hd__mux2_1_1_X[0]:2 0.001310268
3 mux_bottom_track_23/sky130_fd_sc_hd__mux2_1_1_X[0]:4 mux_bottom_track_23/sky130_fd_sc_hd__mux2_1_1_X[0]:3 0.0045
4 mux_bottom_track_23/sky130_fd_sc_hd__mux2_1_1_X[0]:6 mux_bottom_track_23/sky130_fd_sc_hd__mux2_1_1_X[0]:5 0.0045
5 mux_bottom_track_23/sky130_fd_sc_hd__mux2_1_1_X[0]:5 mux_bottom_track_23/sky130_fd_sc_hd__mux2_1_1_X[0]:4 0.001741071
6 mux_bottom_track_23/sky130_fd_sc_hd__mux2_1_1_X[0]:7 mux_bottom_track_23/sky130_fd_sc_hd__mux2_1_1_X[0]:6 0.0004933036

*END

*D_NET ropt_net_214 0.001262989 //LENGTH 9.235 LUMPCC 0.0005414963 DR

*CONN
*I ropt_mt_inst_766:X O *L 0 *C 92.595 57.800
*I ropt_mt_inst_809:A I *L 0.001766 *C 96.140 53.040
*N ropt_net_214:2 *C 96.103 53.040
*N ropt_net_214:3 *C 94.345 53.040
*N ropt_net_214:4 *C 94.300 53.085
*N ropt_net_214:5 *C 94.300 57.755
*N ropt_net_214:6 *C 94.255 57.800
*N ropt_net_214:7 *C 92.633 57.800

*CAP
0 ropt_mt_inst_766:X 1e-06
1 ropt_mt_inst_809:A 1e-06
2 ropt_net_214:2 7.559946e-05
3 ropt_net_214:3 7.559946e-05
4 ropt_net_214:4 0.0001918579
5 ropt_net_214:5 0.0001918579
6 ropt_net_214:6 9.228902e-05
7 ropt_net_214:7 9.228902e-05
8 ropt_net_214:6 chanx_left_in[12]:9 7.331419e-05
9 ropt_net_214:7 chanx_left_in[12]:10 7.331419e-05
10 ropt_net_214:4 chanx_right_out[0]:3 0.0001324144
11 ropt_net_214:5 chanx_right_out[0]:4 0.0001324144
12 ropt_net_214:2 ropt_net_172:13 6.596641e-06
13 ropt_net_214:2 ropt_net_172:15 5.84229e-05
14 ropt_net_214:3 ropt_net_172:14 6.596641e-06
15 ropt_net_214:3 ropt_net_172:16 5.84229e-05

*RES
0 ropt_mt_inst_766:X ropt_net_214:7 0.152
1 ropt_net_214:2 ropt_mt_inst_809:A 0.152
2 ropt_net_214:3 ropt_net_214:2 0.001569197
3 ropt_net_214:4 ropt_net_214:3 0.0045
4 ropt_net_214:6 ropt_net_214:5 0.0045
5 ropt_net_214:5 ropt_net_214:4 0.004169643
6 ropt_net_214:7 ropt_net_214:6 0.001448661

*END

*D_NET chanx_left_out[3] 0.0006333021 //LENGTH 4.100 LUMPCC 0 DR

*CONN
*I ropt_mt_inst_785:X O *L 0 *C 4.140 23.800
*P chanx_left_out[3] O *L 0.7423 *C 1.230 23.120
*N chanx_left_out[3]:2 *C 4.133 23.120
*N chanx_left_out[3]:3 *C 4.140 23.178
*N chanx_left_out[3]:4 *C 4.140 23.755
*N chanx_left_out[3]:5 *C 4.140 23.800

*CAP
0 ropt_mt_inst_785:X 1e-06
1 chanx_left_out[3] 0.0002345336
2 chanx_left_out[3]:2 0.0002345336
3 chanx_left_out[3]:3 6.446068e-05
4 chanx_left_out[3]:4 6.446068e-05
5 chanx_left_out[3]:5 3.431359e-05

*RES
0 ropt_mt_inst_785:X chanx_left_out[3]:5 0.152
1 chanx_left_out[3]:5 chanx_left_out[3]:4 0.0045
2 chanx_left_out[3]:4 chanx_left_out[3]:3 0.000515625
3 chanx_left_out[3]:3 chanx_left_out[3]:2 0.00341
4 chanx_left_out[3]:2 chanx_left_out[3] 0.000454725

*END

*D_NET chanx_right_out[17] 0.001585169 //LENGTH 12.365 LUMPCC 0 DR

*CONN
*I ropt_mt_inst_793:X O *L 0 *C 92.595 63.240
*P chanx_right_out[17] O *L 0.7423 *C 101.810 61.200
*N chanx_right_out[17]:2 *C 101.208 61.200
*N chanx_right_out[17]:3 *C 101.200 61.200
*N chanx_right_out[17]:4 *C 101.155 61.200
*N chanx_right_out[17]:5 *C 97.105 61.200
*N chanx_right_out[17]:6 *C 97.060 61.245
*N chanx_right_out[17]:7 *C 97.060 63.195
*N chanx_right_out[17]:8 *C 97.015 63.240
*N chanx_right_out[17]:9 *C 92.633 63.240

*CAP
0 ropt_mt_inst_793:X 1e-06
1 chanx_right_out[17] 6.788642e-05
2 chanx_right_out[17]:2 6.788642e-05
3 chanx_right_out[17]:3 3.519146e-05
4 chanx_right_out[17]:4 0.0002541796
5 chanx_right_out[17]:5 0.0002541796
6 chanx_right_out[17]:6 0.0001401631
7 chanx_right_out[17]:7 0.0001401631
8 chanx_right_out[17]:8 0.0003122598
9 chanx_right_out[17]:9 0.0003122598

*RES
0 ropt_mt_inst_793:X chanx_right_out[17]:9 0.152
1 chanx_right_out[17]:9 chanx_right_out[17]:8 0.003912946
2 chanx_right_out[17]:8 chanx_right_out[17]:7 0.0045
3 chanx_right_out[17]:7 chanx_right_out[17]:6 0.001741072
4 chanx_right_out[17]:5 chanx_right_out[17]:4 0.003616071
5 chanx_right_out[17]:6 chanx_right_out[17]:5 0.0045
6 chanx_right_out[17]:4 chanx_right_out[17]:3 0.0045
7 chanx_right_out[17]:3 chanx_right_out[17]:2 0.00341
8 chanx_right_out[17]:2 chanx_right_out[17] 9.439165e-05

*END

*D_NET chanx_right_out[10] 0.001062161 //LENGTH 8.790 LUMPCC 9.234418e-05 DR

*CONN
*I ropt_mt_inst_807:X O *L 0 *C 95.875 22.440
*P chanx_right_out[10] O *L 0.7423 *C 101.810 20.400
*N chanx_right_out[10]:2 *C 97.528 20.400
*N chanx_right_out[10]:3 *C 97.520 20.457
*N chanx_right_out[10]:4 *C 97.520 22.395
*N chanx_right_out[10]:5 *C 97.475 22.440
*N chanx_right_out[10]:6 *C 95.913 22.440

*CAP
0 ropt_mt_inst_807:X 1e-06
1 chanx_right_out[10] 0.0002487104
2 chanx_right_out[10]:2 0.0002487104
3 chanx_right_out[10]:3 8.331235e-05
4 chanx_right_out[10]:4 8.331235e-05
5 chanx_right_out[10]:5 0.0001523859
6 chanx_right_out[10]:6 0.0001523859
7 chanx_right_out[10]:4 ropt_net_191:4 4.617209e-05
8 chanx_right_out[10]:3 ropt_net_191:5 4.617209e-05

*RES
0 ropt_mt_inst_807:X chanx_right_out[10]:6 0.152
1 chanx_right_out[10]:6 chanx_right_out[10]:5 0.001395089
2 chanx_right_out[10]:5 chanx_right_out[10]:4 0.0045
3 chanx_right_out[10]:4 chanx_right_out[10]:3 0.001729911
4 chanx_right_out[10]:3 chanx_right_out[10]:2 0.00341
5 chanx_right_out[10]:2 chanx_right_out[10] 0.000670925

*END

*D_NET chanx_right_in[5] 0.01934516 //LENGTH 108.465 LUMPCC 0.007802935 DR

*CONN
*P chanx_right_in[5] I *L 0.29796 *C 101.810 29.920
*I mux_left_track_5\/mux_l1_in_0_:A1 I *L 0.00198 *C 57.040 30.940
*I mux_bottom_track_5\/mux_l1_in_0_:A1 I *L 0.00198 *C 25.300 36.380
*I FTB_3__2:A I *L 0.001767 *C 6.900 34.000
*N chanx_right_in[5]:4 *C 6.938 34.000
*N chanx_right_in[5]:5 *C 8.695 34.000
*N chanx_right_in[5]:6 *C 8.740 34.045
*N chanx_right_in[5]:7 *C 8.740 36.663
*N chanx_right_in[5]:8 *C 8.748 36.720
*N chanx_right_in[5]:9 *C 25.753 36.720
*N chanx_right_in[5]:10 *C 25.725 36.680
*N chanx_right_in[5]:11 *C 25.300 36.380
*N chanx_right_in[5]:12 *C 25.300 36.380
*N chanx_right_in[5]:13 *C 25.707 36.380
*N chanx_right_in[5]:14 *C 25.760 34.738
*N chanx_right_in[5]:15 *C 25.768 34.680
*N chanx_right_in[5]:16 *C 26.673 34.680
*N chanx_right_in[5]:17 *C 26.680 34.623
*N chanx_right_in[5]:18 *C 26.680 31.338
*N chanx_right_in[5]:19 *C 26.688 31.280
*N chanx_right_in[5]:20 *C 57.040 30.940
*N chanx_right_in[5]:21 *C 57.040 30.940
*N chanx_right_in[5]:22 *C 57.040 31.280
*N chanx_right_in[5]:23 *C 57.040 31.280
*N chanx_right_in[5]:24 *C 59.793 31.280
*N chanx_right_in[5]:25 *C 59.800 31.223
*N chanx_right_in[5]:26 *C 59.800 29.978
*N chanx_right_in[5]:27 *C 59.808 29.920

*CAP
0 chanx_right_in[5] 0.001769097
1 mux_left_track_5\/mux_l1_in_0_:A1 1e-06
2 mux_bottom_track_5\/mux_l1_in_0_:A1 1e-06
3 FTB_3__2:A 1e-06
4 chanx_right_in[5]:4 0.000151898
5 chanx_right_in[5]:5 0.000151898
6 chanx_right_in[5]:6 0.0001632165
7 chanx_right_in[5]:7 0.0001632165
8 chanx_right_in[5]:8 0.0007322488
9 chanx_right_in[5]:9 0.0007322488
10 chanx_right_in[5]:10 3.568784e-05
11 chanx_right_in[5]:11 3.542918e-05
12 chanx_right_in[5]:12 5.997424e-05
13 chanx_right_in[5]:13 0.0001789627
14 chanx_right_in[5]:14 0.0001154533
15 chanx_right_in[5]:15 0.0001405116
16 chanx_right_in[5]:16 0.0001405116
17 chanx_right_in[5]:17 0.0002224604
18 chanx_right_in[5]:18 0.0002224604
19 chanx_right_in[5]:19 0.00208695
20 chanx_right_in[5]:20 3.743339e-05
21 chanx_right_in[5]:21 5.012345e-05
22 chanx_right_in[5]:22 5.460727e-05
23 chanx_right_in[5]:23 0.002209617
24 chanx_right_in[5]:24 0.0001226672
25 chanx_right_in[5]:25 9.672952e-05
26 chanx_right_in[5]:26 9.672952e-05
27 chanx_right_in[5]:27 0.001769097
28 chanx_right_in[5] chanx_right_in[14]:32 0.0004938498
29 chanx_right_in[5] chanx_right_in[14]:36 0.001768712
30 chanx_right_in[5]:22 chanx_right_in[14]:30 9.834768e-06
31 chanx_right_in[5]:23 chanx_right_in[14]:25 1.088711e-05
32 chanx_right_in[5]:23 chanx_right_in[14]:31 0.000137945
33 chanx_right_in[5]:23 chanx_right_in[14]:26 0.0001443156
34 chanx_right_in[5]:21 chanx_right_in[14]:29 9.834768e-06
35 chanx_right_in[5]:24 chanx_right_in[14]:32 0.000137945
36 chanx_right_in[5]:24 chanx_right_in[14]:26 1.088711e-05
37 chanx_right_in[5]:27 chanx_right_in[14]:31 0.0004938498
38 chanx_right_in[5]:27 chanx_right_in[14]:35 0.001768712
39 chanx_right_in[5]:19 chanx_right_in[14]:25 0.0001443156
40 chanx_right_in[5]:8 chanx_right_in[14]:8 1.190109e-07
41 chanx_right_in[5]:9 chanx_right_in[14]:9 1.190109e-07
42 chanx_right_in[5]:23 bottom_left_grid_pin_35_[0]:21 4.587024e-06
43 chanx_right_in[5]:19 bottom_left_grid_pin_35_[0]:22 4.587024e-06
44 chanx_right_in[5]:12 bottom_left_grid_pin_35_[0]:22 6.142517e-06
45 chanx_right_in[5]:8 bottom_left_grid_pin_35_[0]:22 0.0006105783
46 chanx_right_in[5]:9 bottom_left_grid_pin_35_[0]:21 0.0006105783
47 chanx_right_in[5]:13 bottom_left_grid_pin_35_[0]:21 6.142517e-06
48 chanx_right_in[5] mux_tree_tapbuf_size2_0_sram[1]:11 0.0003883706
49 chanx_right_in[5]:27 mux_tree_tapbuf_size2_0_sram[1]:10 0.0003883706
50 chanx_right_in[5]:6 mux_left_track_9/sky130_fd_sc_hd__mux2_1_5_X[0]:4 3.232551e-06
51 chanx_right_in[5]:7 mux_left_track_9/sky130_fd_sc_hd__mux2_1_5_X[0]:5 3.232551e-06
52 chanx_right_in[5]:8 mux_left_track_9/sky130_fd_sc_hd__mux2_1_5_X[0]:6 0.0003228929
53 chanx_right_in[5]:9 mux_left_track_9/sky130_fd_sc_hd__mux2_1_5_X[0]:7 0.0003228929

*RES
0 chanx_right_in[5] chanx_right_in[5]:27 0.006580391
1 chanx_right_in[5]:22 chanx_right_in[5]:21 0.0001634615
2 chanx_right_in[5]:23 chanx_right_in[5]:22 0.00341
3 chanx_right_in[5]:23 chanx_right_in[5]:19 0.004755225
4 chanx_right_in[5]:20 mux_left_track_5\/mux_l1_in_0_:A1 0.152
5 chanx_right_in[5]:21 chanx_right_in[5]:20 0.0045
6 chanx_right_in[5]:25 chanx_right_in[5]:24 0.00341
7 chanx_right_in[5]:24 chanx_right_in[5]:23 0.000431225
8 chanx_right_in[5]:26 chanx_right_in[5]:25 0.001111607
9 chanx_right_in[5]:27 chanx_right_in[5]:26 0.00341
10 chanx_right_in[5]:14 chanx_right_in[5]:13 0.001466518
11 chanx_right_in[5]:15 chanx_right_in[5]:14 0.00341
12 chanx_right_in[5]:17 chanx_right_in[5]:16 0.00341
13 chanx_right_in[5]:16 chanx_right_in[5]:15 0.0001417833
14 chanx_right_in[5]:18 chanx_right_in[5]:17 0.002933036
15 chanx_right_in[5]:19 chanx_right_in[5]:18 0.00341
16 chanx_right_in[5]:11 mux_bottom_track_5\/mux_l1_in_0_:A1 0.152
17 chanx_right_in[5]:12 chanx_right_in[5]:11 0.0045
18 chanx_right_in[5]:4 FTB_3__2:A 0.152
19 chanx_right_in[5]:5 chanx_right_in[5]:4 0.001569197
20 chanx_right_in[5]:6 chanx_right_in[5]:5 0.0045
21 chanx_right_in[5]:7 chanx_right_in[5]:6 0.002337054
22 chanx_right_in[5]:8 chanx_right_in[5]:7 0.00341
23 chanx_right_in[5]:10 chanx_right_in[5]:9 0.00341
24 chanx_right_in[5]:9 chanx_right_in[5]:8 0.002664116
25 chanx_right_in[5]:13 chanx_right_in[5]:12 0.0003638393
26 chanx_right_in[5]:13 chanx_right_in[5]:10 0.0001785714

*END

*D_NET mux_tree_tapbuf_size5_mem_2_ccff_tail[0] 0.0005782514 //LENGTH 3.770 LUMPCC 0.000106868 DR

*CONN
*I mem_right_track_24\/FTB_8__33:X O *L 0 *C 71.995 4.760
*I mem_right_track_32\/sky130_fd_sc_hd__dfxbp_1_0_:D I *L 0.001695 *C 70.555 6.460
*N mux_tree_tapbuf_size5_mem_2_ccff_tail[0]:2 *C 70.555 6.460
*N mux_tree_tapbuf_size5_mem_2_ccff_tail[0]:3 *C 70.840 6.460
*N mux_tree_tapbuf_size5_mem_2_ccff_tail[0]:4 *C 70.840 6.415
*N mux_tree_tapbuf_size5_mem_2_ccff_tail[0]:5 *C 70.840 4.805
*N mux_tree_tapbuf_size5_mem_2_ccff_tail[0]:6 *C 70.885 4.760
*N mux_tree_tapbuf_size5_mem_2_ccff_tail[0]:7 *C 71.958 4.760

*CAP
0 mem_right_track_24\/FTB_8__33:X 1e-06
1 mem_right_track_32\/sky130_fd_sc_hd__dfxbp_1_0_:D 1e-06
2 mux_tree_tapbuf_size5_mem_2_ccff_tail[0]:2 5.521318e-05
3 mux_tree_tapbuf_size5_mem_2_ccff_tail[0]:3 6.120839e-05
4 mux_tree_tapbuf_size5_mem_2_ccff_tail[0]:4 8.01818e-05
5 mux_tree_tapbuf_size5_mem_2_ccff_tail[0]:5 8.01818e-05
6 mux_tree_tapbuf_size5_mem_2_ccff_tail[0]:6 9.629912e-05
7 mux_tree_tapbuf_size5_mem_2_ccff_tail[0]:7 9.629912e-05
8 mux_tree_tapbuf_size5_mem_2_ccff_tail[0]:4 chany_bottom_out[16]:2 5.343401e-05
9 mux_tree_tapbuf_size5_mem_2_ccff_tail[0]:5 chany_bottom_out[16] 5.343401e-05

*RES
0 mem_right_track_24\/FTB_8__33:X mux_tree_tapbuf_size5_mem_2_ccff_tail[0]:7 0.152
1 mux_tree_tapbuf_size5_mem_2_ccff_tail[0]:2 mem_right_track_32\/sky130_fd_sc_hd__dfxbp_1_0_:D 0.152
2 mux_tree_tapbuf_size5_mem_2_ccff_tail[0]:3 mux_tree_tapbuf_size5_mem_2_ccff_tail[0]:2 0.0001548913
3 mux_tree_tapbuf_size5_mem_2_ccff_tail[0]:4 mux_tree_tapbuf_size5_mem_2_ccff_tail[0]:3 0.0045
4 mux_tree_tapbuf_size5_mem_2_ccff_tail[0]:6 mux_tree_tapbuf_size5_mem_2_ccff_tail[0]:5 0.0045