*SPEF "1481-1998"
*DESIGN "sb_1__2_"
*DATE "Mon Oct 26 23:03:32 2020"
*
*
*
*
*DIVIDER /
*DELIMITER :
*T_UNIT 1 NS
*C_UNIT 1 PF
*R_UNIT 1 KOHM
*L_UNIT 1 HENRY

// XY_UNIT 1 UM
// PARASITIC_TECH nominal at 25.000 degree

*PORTS
prog_clk[0] I *C 30.820 0.680
chanx_right_in[0] I *C 140.990 87.040
chanx_right_in[1] I *C 140.990 57.120
chanx_right_in[2] I *C 140.990 99.280
chanx_right_in[3] I *C 140.990 96.560
chanx_right_in[4] I *C 140.990 34.000
chanx_right_in[5] I *C 140.990 62.560
chanx_right_in[6] I *C 140.990 31.280
chanx_right_in[7] I *C 140.990 50.320
chanx_right_in[8] I *C 140.990 77.520
chanx_right_in[9] I *C 140.990 35.360
chanx_right_in[10] I *C 140.990 80.240
chanx_right_in[11] I *C 140.990 58.480
chanx_right_in[12] I *C 140.990 74.800
chanx_right_in[13] I *C 140.990 36.720
chanx_right_in[14] I *C 140.990 43.520
chanx_right_in[15] I *C 140.990 55.760
chanx_right_in[16] I *C 140.990 40.800
chanx_right_in[17] I *C 140.990 61.200
chanx_right_in[18] I *C 140.990 39.440
chanx_right_in[19] I *C 140.990 72.080
right_top_grid_pin_1_[0] I *C 139.380 102.680
chany_bottom_in[0] I *C 82.340 0.680
chany_bottom_in[1] I *C 67.160 0.680
chany_bottom_in[2] I *C 81.420 0.680
chany_bottom_in[3] I *C 88.320 0.680
chany_bottom_in[4] I *C 65.320 0.680
chany_bottom_in[5] I *C 75.900 0.680
chany_bottom_in[6] I *C 94.300 0.680
chany_bottom_in[7] I *C 87.400 0.680
chany_bottom_in[8] I *C 77.740 0.680
chany_bottom_in[9] I *C 84.180 0.680
chany_bottom_in[10] I *C 62.560 0.680
chany_bottom_in[11] I *C 86.480 0.680
chany_bottom_in[12] I *C 79.580 0.680
chany_bottom_in[13] I *C 68.080 0.680
chany_bottom_in[14] I *C 66.240 0.680
chany_bottom_in[15] I *C 53.360 0.680
chany_bottom_in[16] I *C 76.820 0.680
chany_bottom_in[17] I *C 69.920 0.680
chany_bottom_in[18] I *C 57.500 0.680
chany_bottom_in[19] I *C 78.660 0.680
bottom_left_grid_pin_34_[0] I *C 29.210 10.200
bottom_left_grid_pin_35_[0] I *C 29.210 8.160
bottom_left_grid_pin_36_[0] I *C 29.210 6.800
bottom_left_grid_pin_37_[0] I *C 29.210 3.400
bottom_left_grid_pin_38_[0] I *C 29.210 4.760
bottom_left_grid_pin_39_[0] I *C 29.210 11.560
bottom_left_grid_pin_40_[0] I *C 29.210 12.920
bottom_left_grid_pin_41_[0] I *C 29.210 14.280
chanx_left_in[0] I *C 0.690 39.440
chanx_left_in[1] I *C 0.690 42.160
chanx_left_in[2] I *C 0.690 68.000
chanx_left_in[3] I *C 0.690 61.200
chanx_left_in[4] I *C 0.690 50.320
chanx_left_in[5] I *C 0.690 46.240
chanx_left_in[6] I *C 0.690 31.280
chanx_left_in[7] I *C 0.690 72.080
chanx_left_in[8] I *C 0.690 76.160
chanx_left_in[9] I *C 0.690 99.280
chanx_left_in[10] I *C 0.690 36.720
chanx_left_in[11] I *C 0.690 63.920
chanx_left_in[12] I *C 0.690 32.640
chanx_left_in[13] I *C 0.690 74.800
chanx_left_in[14] I *C 0.690 59.840
chanx_left_in[15] I *C 0.690 96.560
chanx_left_in[16] I *C 0.690 55.760
chanx_left_in[17] I *C 0.690 53.040
chanx_left_in[18] I *C 0.690 38.080
chanx_left_in[19] I *C 0.690 81.600
left_top_grid_pin_1_[0] I *C 2.300 102.680
ccff_head[0] I *C 138.460 102.680
chanx_right_out[0] O *C 140.990 73.440
chanx_right_out[1] O *C 140.990 47.600
chanx_right_out[2] O *C 140.990 53.040
chanx_right_out[3] O *C 140.990 82.960
chanx_right_out[4] O *C 140.990 78.880
chanx_right_out[5] O *C 140.990 95.200
chanx_right_out[6] O *C 140.990 84.320
chanx_right_out[7] O *C 140.990 93.840
chanx_right_out[8] O *C 140.990 85.680
chanx_right_out[9] O *C 140.990 44.880
chanx_right_out[10] O *C 140.990 51.680
chanx_right_out[11] O *C 140.990 69.360
chanx_right_out[12] O *C 140.990 42.160
chanx_right_out[13] O *C 140.990 66.640
chanx_right_out[14] O *C 140.990 91.120
chanx_right_out[15] O *C 140.990 68.000
chanx_right_out[16] O *C 140.990 63.920
chanx_right_out[17] O *C 140.990 88.400
chanx_right_out[18] O *C 140.990 89.760
chanx_right_out[19] O *C 140.990 46.240
chany_bottom_out[0] O *C 83.260 0.680
chany_bottom_out[1] O *C 59.800 0.680
chany_bottom_out[2] O *C 52.440 0.680
chany_bottom_out[3] O *C 69.000 0.680
chany_bottom_out[4] O *C 96.600 0.680
chany_bottom_out[5] O *C 71.760 0.680
chany_bottom_out[6] O *C 74.980 0.680
chany_bottom_out[7] O *C 60.720 0.680
chany_bottom_out[8] O *C 63.480 0.680
chany_bottom_out[9] O *C 54.280 0.680
chany_bottom_out[10] O *C 93.380 0.680
chany_bottom_out[11] O *C 74.060 0.680
chany_bottom_out[12] O *C 80.500 0.680
chany_bottom_out[13] O *C 61.640 0.680
chany_bottom_out[14] O *C 97.520 0.680
chany_bottom_out[15] O *C 55.200 0.680
chany_bottom_out[16] O *C 64.400 0.680
chany_bottom_out[17] O *C 58.880 0.680
chany_bottom_out[18] O *C 73.140 0.680
chany_bottom_out[19] O *C 70.840 0.680
chanx_left_out[0] O *C 0.690 80.240
chanx_left_out[1] O *C 0.690 93.840
chanx_left_out[2] O *C 0.690 34.000
chanx_left_out[3] O *C 0.690 48.960
chanx_left_out[4] O *C 0.690 58.480
chanx_left_out[5] O *C 0.690 70.720
chanx_left_out[6] O *C 0.690 43.520
chanx_left_out[7] O *C 0.690 47.600
chanx_left_out[8] O *C 0.690 85.680
chanx_left_out[9] O *C 0.690 65.280
chanx_left_out[10] O *C 0.690 97.920
chanx_left_out[11] O *C 0.690 92.480
chanx_left_out[12] O *C 0.690 82.960
chanx_left_out[13] O *C 0.690 87.040
chanx_left_out[14] O *C 0.690 69.360
chanx_left_out[15] O *C 0.690 44.880
chanx_left_out[16] O *C 0.690 54.400
chanx_left_out[17] O *C 0.690 91.120
chanx_left_out[18] O *C 0.690 66.640
chanx_left_out[19] O *C 0.690 88.400
ccff_tail[0] O *C 0.690 77.520
VDD I *C 70.840 51.680
VSS I *C 70.840 51.680

*D_NET chanx_right_in[2] 0.02704049 //LENGTH 227.440 LUMPCC 0.005795144 DR

*CONN
*P chanx_right_in[2] I *L 0.29796 *C 140.450 99.280
*I FTB_1__0:A I *L 0.001776 *C 14.720 50.320
*I mux_bottom_track_1\/mux_l1_in_0_:A1 I *L 0.00198 *C 35.520 30.940
*I mux_left_track_1\/mux_l1_in_0_:A1 I *L 0.00198 *C 61.180 30.940
*N chanx_right_in[2]:4 *C 33.640 34.000
*N chanx_right_in[2]:5 *C 61.143 30.940
*N chanx_right_in[2]:6 *C 57.960 30.940
*N chanx_right_in[2]:7 *C 57.960 31.960
*N chanx_right_in[2]:8 *C 37.765 31.960
*N chanx_right_in[2]:9 *C 37.720 31.915
*N chanx_right_in[2]:10 *C 37.720 30.985
*N chanx_right_in[2]:11 *C 37.675 30.940
*N chanx_right_in[2]:12 *C 35.520 30.940
*N chanx_right_in[2]:13 *C 34.085 30.940
*N chanx_right_in[2]:14 *C 34.040 30.985
*N chanx_right_in[2]:15 *C 34.040 33.943
*N chanx_right_in[2]:16 *C 34.040 34.000
*N chanx_right_in[2]:17 *C 34.040 34.008
*N chanx_right_in[2]:18 *C 14.758 50.320
*N chanx_right_in[2]:19 *C 15.135 50.320
*N chanx_right_in[2]:20 *C 15.180 50.320
*N chanx_right_in[2]:21 *C 15.188 50.320
*N chanx_right_in[2]:22 *C 34.020 50.320
*N chanx_right_in[2]:23 *C 34.040 50.320
*N chanx_right_in[2]:24 *C 34.040 97.233
*N chanx_right_in[2]:25 *C 34.060 97.240
*N chanx_right_in[2]:26 *C 83.850 97.240
*N chanx_right_in[2]:27 *C 133.850 97.240
*N chanx_right_in[2]:28 *C 138.900 97.240
*N chanx_right_in[2]:29 *C 138.920 97.248
*N chanx_right_in[2]:30 *C 138.920 99.273
*N chanx_right_in[2]:31 *C 138.940 99.280

*CAP
0 chanx_right_in[2] 7.155978e-05
1 FTB_1__0:A 1e-06
2 mux_bottom_track_1\/mux_l1_in_0_:A1 1e-06
3 mux_left_track_1\/mux_l1_in_0_:A1 1e-06
4 chanx_right_in[2]:4 9.647301e-05
5 chanx_right_in[2]:5 0.0002590436
6 chanx_right_in[2]:6 0.0003208605
7 chanx_right_in[2]:7 0.001274011
8 chanx_right_in[2]:8 0.001212194
9 chanx_right_in[2]:9 8.035895e-05
10 chanx_right_in[2]:10 8.035895e-05
11 chanx_right_in[2]:11 0.0001632689
12 chanx_right_in[2]:12 0.0002930064
13 chanx_right_in[2]:13 9.914022e-05
14 chanx_right_in[2]:14 0.0001903645
15 chanx_right_in[2]:15 0.0001903645
16 chanx_right_in[2]:16 9.647301e-05
17 chanx_right_in[2]:17 0.0008802869
18 chanx_right_in[2]:18 4.350123e-05
19 chanx_right_in[2]:19 4.350123e-05
20 chanx_right_in[2]:20 3.350122e-05
21 chanx_right_in[2]:21 0.0004363312
22 chanx_right_in[2]:22 0.0004363312
23 chanx_right_in[2]:23 0.002834101
24 chanx_right_in[2]:24 0.001953814
25 chanx_right_in[2]:25 0.002357936
26 chanx_right_in[2]:26 0.004522766
27 chanx_right_in[2]:27 0.002571323
28 chanx_right_in[2]:28 0.0004064931
29 chanx_right_in[2]:29 0.0001117091
30 chanx_right_in[2]:30 0.0001117091
31 chanx_right_in[2]:31 7.155978e-05
32 chanx_right_in[2]:22 chanx_right_in[5]:17 0.0003161383
33 chanx_right_in[2]:22 chanx_right_in[5]:16 0.0007583522
34 chanx_right_in[2]:21 chanx_right_in[5]:11 0.0007583522
35 chanx_right_in[2]:21 chanx_right_in[5]:16 0.0003161383
36 chanx_right_in[2]:24 chanx_left_in[2]:15 0.0002428322
37 chanx_right_in[2]:24 chanx_left_in[2]:23 0.0001983926
38 chanx_right_in[2]:23 chanx_left_in[2]:23 0.0003588029
39 chanx_right_in[2]:23 chanx_left_in[2]:22 0.0001983926
40 chanx_right_in[2]:17 chanx_left_in[2]:22 0.0001159708
41 chanx_right_in[2] chanx_right_in[3] 1.880846e-05
42 chanx_right_in[2]:28 chanx_right_in[3] 7.50887e-05
43 chanx_right_in[2]:31 chanx_right_in[3]:14 1.880846e-05
44 chanx_right_in[2]:26 chanx_right_in[3]:11 1.034352e-05
45 chanx_right_in[2]:26 chanx_right_in[3]:14 0.0004617944
46 chanx_right_in[2]:27 chanx_right_in[3] 0.0004617944
47 chanx_right_in[2]:27 chanx_right_in[3]:12 1.034352e-05
48 chanx_right_in[2]:27 chanx_right_in[3]:14 7.50887e-05
49 chanx_right_in[2]:22 mux_left_track_9/sky130_fd_sc_hd__mux2_1_5_X[0]:7 0.0002864564
50 chanx_right_in[2]:21 mux_left_track_9/sky130_fd_sc_hd__mux2_1_5_X[0]:6 0.0002864564
51 chanx_right_in[2]:8 optlc_net_165:41 0.0002420248
52 chanx_right_in[2]:8 optlc_net_165:23 1.35978e-05
53 chanx_right_in[2]:8 optlc_net_165:42 0.0001577718
54 chanx_right_in[2]:7 optlc_net_165:23 0.0001577718
55 chanx_right_in[2]:7 optlc_net_165:9 1.35978e-05
56 chanx_right_in[2]:7 optlc_net_165:42 0.0002420248

*RES
0 chanx_right_in[2] chanx_right_in[2]:31 0.0002365667
1 chanx_right_in[2]:11 chanx_right_in[2]:10 0.0045
2 chanx_right_in[2]:10 chanx_right_in[2]:9 0.0008303572
3 chanx_right_in[2]:8 chanx_right_in[2]:7 0.01803125
4 chanx_right_in[2]:9 chanx_right_in[2]:8 0.0045
5 chanx_right_in[2]:5 mux_left_track_1\/mux_l1_in_0_:A1 0.152
6 chanx_right_in[2]:25 chanx_right_in[2]:24 0.00341
7 chanx_right_in[2]:24 chanx_right_in[2]:23 0.007349624
8 chanx_right_in[2]:28 chanx_right_in[2]:27 0.0007911666
9 chanx_right_in[2]:29 chanx_right_in[2]:28 0.00341
10 chanx_right_in[2]:31 chanx_right_in[2]:30 0.00341
11 chanx_right_in[2]:30 chanx_right_in[2]:29 0.00031725
12 chanx_right_in[2]:22 chanx_right_in[2]:21 0.002950425
13 chanx_right_in[2]:23 chanx_right_in[2]:22 0.00341
14 chanx_right_in[2]:23 chanx_right_in[2]:17 0.002555625
15 chanx_right_in[2]:20 chanx_right_in[2]:19 0.0045
16 chanx_right_in[2]:21 chanx_right_in[2]:20 0.00341
17 chanx_right_in[2]:19 chanx_right_in[2]:18 0.0003370536
18 chanx_right_in[2]:18 FTB_1__0:A 0.152
19 chanx_right_in[2]:16 chanx_right_in[2]:15 0.00341
20 chanx_right_in[2]:16 chanx_right_in[2]:4 5.69697e-05
21 chanx_right_in[2]:17 chanx_right_in[2]:16 0.00341
22 chanx_right_in[2]:15 chanx_right_in[2]:14 0.002640625
23 chanx_right_in[2]:13 chanx_right_in[2]:12 0.00128125
24 chanx_right_in[2]:14 chanx_right_in[2]:13 0.0045
25 chanx_right_in[2]:12 mux_bottom_track_1\/mux_l1_in_0_:A1 0.152
26 chanx_right_in[2]:12 chanx_right_in[2]:11 0.001924107
27 chanx_right_in[2]:7 chanx_right_in[2]:6 0.0009107143
28 chanx_right_in[2]:6 chanx_right_in[2]:5 0.002841518
29 chanx_right_in[2]:26 chanx_right_in[2]:25 0.007800433
30 chanx_right_in[2]:27 chanx_right_in[2]:26 0.007833333

*END

*D_NET chany_bottom_in[6] 0.007200609 //LENGTH 59.365 LUMPCC 0.0002993389 DR

*CONN
*P chany_bottom_in[6] I *L 0.29796 *C 94.300 1.290
*I mux_left_track_1\/mux_l1_in_1_:A1 I *L 0.00198 *C 74.425 25.500
*I mux_right_track_32\/mux_l1_in_0_:A1 I *L 0.00198 *C 100.840 28.900
*N chany_bottom_in[6]:3 *C 100.803 28.900
*N chany_bottom_in[6]:4 *C 97.565 28.900
*N chany_bottom_in[6]:5 *C 97.520 28.855
*N chany_bottom_in[6]:6 *C 97.520 27.938
*N chany_bottom_in[6]:7 *C 97.513 27.880
*N chany_bottom_in[6]:8 *C 74.463 25.500
*N chany_bottom_in[6]:9 *C 75.855 25.500
*N chany_bottom_in[6]:10 *C 75.900 25.545
*N chany_bottom_in[6]:11 *C 75.900 27.823
*N chany_bottom_in[6]:12 *C 75.907 27.880
*N chany_bottom_in[6]:13 *C 94.760 27.880
*N chany_bottom_in[6]:14 *C 94.760 27.873
*N chany_bottom_in[6]:15 *C 94.760 2.728
*N chany_bottom_in[6]:16 *C 94.745 2.720
*N chany_bottom_in[6]:17 *C 94.303 2.720
*N chany_bottom_in[6]:18 *C 94.300 2.663

*CAP
0 chany_bottom_in[6] 8.642994e-05
1 mux_left_track_1\/mux_l1_in_1_:A1 1e-06
2 mux_right_track_32\/mux_l1_in_0_:A1 1e-06
3 chany_bottom_in[6]:3 0.0002731333
4 chany_bottom_in[6]:4 0.0002731333
5 chany_bottom_in[6]:5 7.840633e-05
6 chany_bottom_in[6]:6 7.840633e-05
7 chany_bottom_in[6]:7 0.000107818
8 chany_bottom_in[6]:8 0.0001568382
9 chany_bottom_in[6]:9 0.0001568382
10 chany_bottom_in[6]:10 0.0001757504
11 chany_bottom_in[6]:11 0.0001757504
12 chany_bottom_in[6]:12 0.00127666
13 chany_bottom_in[6]:13 0.001384478
14 chany_bottom_in[6]:14 0.001252205
15 chany_bottom_in[6]:15 0.001252205
16 chany_bottom_in[6]:16 4.239439e-05
17 chany_bottom_in[6]:17 4.239439e-05
18 chany_bottom_in[6]:18 8.642994e-05
19 chany_bottom_in[6]:12 mux_bottom_track_25/sky130_fd_sc_hd__mux2_1_2_X[0]:8 7.710191e-05
20 chany_bottom_in[6]:7 mux_bottom_track_25/sky130_fd_sc_hd__mux2_1_2_X[0]:9 7.256756e-05
21 chany_bottom_in[6]:13 mux_bottom_track_25/sky130_fd_sc_hd__mux2_1_2_X[0]:9 7.710191e-05
22 chany_bottom_in[6]:13 mux_bottom_track_25/sky130_fd_sc_hd__mux2_1_2_X[0]:8 7.256756e-05

*RES
0 chany_bottom_in[6] chany_bottom_in[6]:18 0.001225446
1 chany_bottom_in[6]:11 chany_bottom_in[6]:10 0.002033482
2 chany_bottom_in[6]:12 chany_bottom_in[6]:11 0.00341
3 chany_bottom_in[6]:9 chany_bottom_in[6]:8 0.001243304
4 chany_bottom_in[6]:10 chany_bottom_in[6]:9 0.0045
5 chany_bottom_in[6]:8 mux_left_track_1\/mux_l1_in_1_:A1 0.152
6 chany_bottom_in[6]:6 chany_bottom_in[6]:5 0.0008191965
7 chany_bottom_in[6]:7 chany_bottom_in[6]:6 0.00341
8 chany_bottom_in[6]:4 chany_bottom_in[6]:3 0.002890625
9 chany_bottom_in[6]:5 chany_bottom_in[6]:4 0.0045
10 chany_bottom_in[6]:3 mux_right_track_32\/mux_l1_in_0_:A1 0.152
11 chany_bottom_in[6]:13 chany_bottom_in[6]:12 0.002953558
12 chany_bottom_in[6]:13 chany_bottom_in[6]:7 0.000431225
13 chany_bottom_in[6]:14 chany_bottom_in[6]:13 0.00341
14 chany_bottom_in[6]:16 chany_bottom_in[6]:15 0.00341
15 chany_bottom_in[6]:15 chany_bottom_in[6]:14 0.003939383
16 chany_bottom_in[6]:18 chany_bottom_in[6]:17 0.00341
17 chany_bottom_in[6]:17 chany_bottom_in[6]:16 6.499219e-05

*END

*D_NET chany_bottom_in[18] 0.01128115 //LENGTH 90.550 LUMPCC 0.0006548815 DR

*CONN
*P chany_bottom_in[18] I *L 0.29796 *C 57.500 1.290
*I mux_left_track_25\/mux_l2_in_1_:A1 I *L 0.00198 *C 52.540 74.460
*I mux_right_track_2\/mux_l1_in_1_:A1 I *L 0.00198 *C 60.360 66.980
*N chany_bottom_in[18]:3 *C 57.560 62.560
*N chany_bottom_in[18]:4 *C 60.398 66.980
*N chany_bottom_in[18]:5 *C 61.180 66.980
*N chany_bottom_in[18]:6 *C 61.180 66.640
*N chany_bottom_in[18]:7 *C 57.960 66.640
*N chany_bottom_in[18]:8 *C 52.440 74.460
*N chany_bottom_in[18]:9 *C 52.440 74.415
*N chany_bottom_in[18]:10 *C 52.440 66.345
*N chany_bottom_in[18]:11 *C 52.485 66.300
*N chany_bottom_in[18]:12 *C 57.960 66.330
*N chany_bottom_in[18]:13 *C 57.960 66.255
*N chany_bottom_in[18]:14 *C 57.960 62.617
*N chany_bottom_in[18]:15 *C 57.960 62.560
*N chany_bottom_in[18]:16 *C 57.960 62.553
*N chany_bottom_in[18]:17 *C 57.960 29.928
*N chany_bottom_in[18]:18 *C 57.980 29.920
*N chany_bottom_in[18]:19 *C 59.333 29.920
*N chany_bottom_in[18]:20 *C 59.340 29.863
*N chany_bottom_in[18]:21 *C 59.340 7.525
*N chany_bottom_in[18]:22 *C 59.295 7.480
*N chany_bottom_in[18]:23 *C 57.545 7.480
*N chany_bottom_in[18]:24 *C 57.500 7.435

*CAP
0 chany_bottom_in[18] 0.0003397883
1 mux_left_track_25\/mux_l2_in_1_:A1 1e-06
2 mux_right_track_2\/mux_l1_in_1_:A1 1e-06
3 chany_bottom_in[18]:3 9.954247e-05
4 chany_bottom_in[18]:4 8.345018e-05
5 chany_bottom_in[18]:5 0.0001077159
6 chany_bottom_in[18]:6 0.0002018821
7 chany_bottom_in[18]:7 0.0002052319
8 chany_bottom_in[18]:8 3.150706e-05
9 chany_bottom_in[18]:9 0.0004553342
10 chany_bottom_in[18]:10 0.0004553342
11 chany_bottom_in[18]:11 0.0004183255
12 chany_bottom_in[18]:12 0.0004459409
13 chany_bottom_in[18]:13 0.0002132974
14 chany_bottom_in[18]:14 0.0002132974
15 chany_bottom_in[18]:15 9.954247e-05
16 chany_bottom_in[18]:16 0.002114438
17 chany_bottom_in[18]:17 0.002114438
18 chany_bottom_in[18]:18 0.0001756668
19 chany_bottom_in[18]:19 0.0001756668
20 chany_bottom_in[18]:20 0.00102619
21 chany_bottom_in[18]:21 0.00102619
22 chany_bottom_in[18]:22 0.0001408521
23 chany_bottom_in[18]:23 0.0001408521
24 chany_bottom_in[18]:24 0.0003397883
25 chany_bottom_in[18]:20 mux_tree_tapbuf_size2_mem_6_ccff_tail[0]:4 3.517451e-05
26 chany_bottom_in[18]:21 mux_tree_tapbuf_size2_mem_6_ccff_tail[0]:5 3.517451e-05
27 chany_bottom_in[18]:20 mux_bottom_track_17/sky130_fd_sc_hd__mux2_1_2_X[0]:5 0.0002922663
28 chany_bottom_in[18]:21 mux_bottom_track_17/sky130_fd_sc_hd__mux2_1_2_X[0]:4 0.0002922663

*RES
0 chany_bottom_in[18] chany_bottom_in[18]:24 0.005486608
1 chany_bottom_in[18]:11 chany_bottom_in[18]:10 0.0045
2 chany_bottom_in[18]:10 chany_bottom_in[18]:9 0.007205358
3 chany_bottom_in[18]:8 mux_left_track_25\/mux_l2_in_1_:A1 0.152
4 chany_bottom_in[18]:9 chany_bottom_in[18]:8 0.0045
5 chany_bottom_in[18]:4 mux_right_track_2\/mux_l1_in_1_:A1 0.152
6 chany_bottom_in[18]:12 chany_bottom_in[18]:11 0.004888393
7 chany_bottom_in[18]:12 chany_bottom_in[18]:7 0.0002767858
8 chany_bottom_in[18]:13 chany_bottom_in[18]:12 0.0045
9 chany_bottom_in[18]:14 chany_bottom_in[18]:13 0.003247768
10 chany_bottom_in[18]:15 chany_bottom_in[18]:14 0.00341
11 chany_bottom_in[18]:15 chany_bottom_in[18]:3 5.69697e-05
12 chany_bottom_in[18]:16 chany_bottom_in[18]:15 0.00341
13 chany_bottom_in[18]:18 chany_bottom_in[18]:17 0.00341
14 chany_bottom_in[18]:17 chany_bottom_in[18]:16 0.00511125
15 chany_bottom_in[18]:20 chany_bottom_in[18]:19 0.00341
16 chany_bottom_in[18]:19 chany_bottom_in[18]:18 0.0002118917
17 chany_bottom_in[18]:22 chany_bottom_in[18]:21 0.0045
18 chany_bottom_in[18]:21 chany_bottom_in[18]:20 0.0199442
19 chany_bottom_in[18]:23 chany_bottom_in[18]:22 0.0015625
20 chany_bottom_in[18]:24 chany_bottom_in[18]:23 0.0045
21 chany_bottom_in[18]:7 chany_bottom_in[18]:6 0.002875
22 chany_bottom_in[18]:6 chany_bottom_in[18]:5 0.0003035715
23 chany_bottom_in[18]:5 chany_bottom_in[18]:4 0.0006986608

*END

*D_NET chanx_left_in[3] 0.004105549 //LENGTH 34.190 LUMPCC 0.0004148973 DR

*CONN
*P chanx_left_in[3] I *L 0.29796 *C 1.230 61.200
*I mux_bottom_track_3\/mux_l1_in_2_:A0 I *L 0.001631 *C 13.975 42.500
*N chanx_left_in[3]:2 *C 13.975 42.500
*N chanx_left_in[3]:3 *C 13.800 41.480
*N chanx_left_in[3]:4 *C 3.725 41.480
*N chanx_left_in[3]:5 *C 3.680 41.525
*N chanx_left_in[3]:6 *C 3.680 61.143
*N chanx_left_in[3]:7 *C 3.673 61.200

*CAP
0 chanx_left_in[3] 0.0001734352
1 mux_bottom_track_3\/mux_l1_in_2_:A0 1e-06
2 chanx_left_in[3]:2 9.559756e-05
3 chanx_left_in[3]:3 0.0006677701
4 chanx_left_in[3]:4 0.0006035383
5 chanx_left_in[3]:5 0.0009879377
6 chanx_left_in[3]:6 0.0009879377
7 chanx_left_in[3]:7 0.0001734352
8 chanx_left_in[3]:6 ropt_net_199:4 5.846145e-05
9 chanx_left_in[3]:5 ropt_net_199:3 5.846145e-05
10 chanx_left_in[3]:6 ropt_net_198:4 9.38438e-05
11 chanx_left_in[3]:5 ropt_net_198:5 9.38438e-05
12 chanx_left_in[3]:6 ropt_net_212:4 1.334191e-05
13 chanx_left_in[3]:4 ropt_net_212:6 4.180149e-05
14 chanx_left_in[3]:5 ropt_net_212:5 1.334191e-05
15 chanx_left_in[3]:3 ropt_net_212:7 4.180149e-05

*RES
0 chanx_left_in[3] chanx_left_in[3]:7 0.0003826583
1 chanx_left_in[3]:6 chanx_left_in[3]:5 0.01751563
2 chanx_left_in[3]:7 chanx_left_in[3]:6 0.00341
3 chanx_left_in[3]:4 chanx_left_in[3]:3 0.008995536
4 chanx_left_in[3]:5 chanx_left_in[3]:4 0.0045
5 chanx_left_in[3]:2 mux_bottom_track_3\/mux_l1_in_2_:A0 0.152
6 chanx_left_in[3]:3 chanx_left_in[3]:2 0.0009107143

*END

*D_NET chanx_right_out[0] 0.003000577 //LENGTH 22.985 LUMPCC 0 DR

*CONN
*I mux_right_track_0\/sky130_fd_sc_hd__buf_4_0_:X O *L 0 *C 120.580 75.140
*P chanx_right_out[0] O *L 0.7423 *C 140.450 73.440
*N chanx_right_out[0]:2 *C 138.920 73.440
*N chanx_right_out[0]:3 *C 138.920 74.120
*N chanx_right_out[0]:4 *C 136.168 74.120
*N chanx_right_out[0]:5 *C 136.160 74.178
*N chanx_right_out[0]:6 *C 136.160 75.095
*N chanx_right_out[0]:7 *C 136.115 75.140
*N chanx_right_out[0]:8 *C 120.618 75.140

*CAP
0 mux_right_track_0\/sky130_fd_sc_hd__buf_4_0_:X 1e-06
1 chanx_right_out[0] 0.0001044828
2 chanx_right_out[0]:2 0.0001452125
3 chanx_right_out[0]:3 0.0003725037
4 chanx_right_out[0]:4 0.000331774
5 chanx_right_out[0]:5 7.519806e-05
6 chanx_right_out[0]:6 7.519806e-05
7 chanx_right_out[0]:7 0.0009476037
8 chanx_right_out[0]:8 0.0009476037

*RES
0 mux_right_track_0\/sky130_fd_sc_hd__buf_4_0_:X chanx_right_out[0]:8 0.152
1 chanx_right_out[0]:8 chanx_right_out[0]:7 0.01383705
2 chanx_right_out[0]:7 chanx_right_out[0]:6 0.0045
3 chanx_right_out[0]:6 chanx_right_out[0]:5 0.0008191965
4 chanx_right_out[0]:5 chanx_right_out[0]:4 0.00341
5 chanx_right_out[0]:4 chanx_right_out[0]:3 0.000431225
6 chanx_right_out[0]:3 chanx_right_out[0]:2 0.0001065333
7 chanx_right_out[0]:2 chanx_right_out[0] 0.0002397

*END

*D_NET ropt_net_180 0.001394329 //LENGTH 9.070 LUMPCC 0.0003954168 DR

*CONN
*I mux_bottom_track_11\/BUFT_P_136:X O *L 0 *C 65.320 3.400
*I ropt_mt_inst_800:A I *L 0.001767 *C 73.140 4.080
*N ropt_net_180:2 *C 73.103 4.080
*N ropt_net_180:3 *C 70.840 4.080
*N ropt_net_180:4 *C 70.840 3.400
*N ropt_net_180:5 *C 65.358 3.400

*CAP
0 mux_bottom_track_11\/BUFT_P_136:X 1e-06
1 ropt_mt_inst_800:A 1e-06
2 ropt_net_180:2 0.0001864375
3 ropt_net_180:3 0.0002268829
4 ropt_net_180:4 0.0003120186
5 ropt_net_180:5 0.0002715732
6 ropt_net_180:5 chany_bottom_out[19]:5 0.0001925453
7 ropt_net_180:4 chany_bottom_out[19]:4 0.0001925453
8 ropt_net_180:4 chany_bottom_out[19]:2 5.163111e-06
9 ropt_net_180:3 chany_bottom_out[19]:3 5.163111e-06

*RES
0 mux_bottom_track_11\/BUFT_P_136:X ropt_net_180:5 0.152
1 ropt_net_180:2 ropt_mt_inst_800:A 0.152
2 ropt_net_180:5 ropt_net_180:4 0.004895089
3 ropt_net_180:4 ropt_net_180:3 0.000607143
4 ropt_net_180:3 ropt_net_180:2 0.002020089

*END

*D_NET chany_bottom_out[19] 0.002039113 //LENGTH 13.725 LUMPCC 0.0003954168 DR

*CONN
*I mux_bottom_track_39\/sky130_fd_sc_hd__buf_4_0_:X O *L 0 *C 60.720 4.080
*P chany_bottom_out[19] O *L 0.7423 *C 70.840 1.325
*N chany_bottom_out[19]:2 *C 70.380 1.360
*N chany_bottom_out[19]:3 *C 70.380 3.695
*N chany_bottom_out[19]:4 *C 70.335 3.740
*N chany_bottom_out[19]:5 *C 62.560 3.740
*N chany_bottom_out[19]:6 *C 62.560 4.080
*N chany_bottom_out[19]:7 *C 60.758 4.080

*CAP
0 mux_bottom_track_39\/sky130_fd_sc_hd__buf_4_0_:X 1e-06
1 chany_bottom_out[19] 3.631346e-05
2 chany_bottom_out[19]:2 0.000213099
3 chany_bottom_out[19]:3 0.0001767855
4 chany_bottom_out[19]:4 0.00042962
5 chany_bottom_out[19]:5 0.0004543523
6 chany_bottom_out[19]:6 0.0001786291
7 chany_bottom_out[19]:7 0.0001538967
8 chany_bottom_out[19]:4 ropt_net_180:4 0.0001925453
9 chany_bottom_out[19]:3 ropt_net_180:3 5.163111e-06
10 chany_bottom_out[19]:5 ropt_net_180:5 0.0001925453
11 chany_bottom_out[19]:2 ropt_net_180:4 5.163111e-06

*RES
0 mux_bottom_track_39\/sky130_fd_sc_hd__buf_4_0_:X chany_bottom_out[19]:7 0.152
1 chany_bottom_out[19]:7 chany_bottom_out[19]:6 0.001609375
2 chany_bottom_out[19]:4 chany_bottom_out[19]:3 0.0045
3 chany_bottom_out[19]:3 chany_bottom_out[19]:2 0.002084821
4 chany_bottom_out[19]:6 chany_bottom_out[19]:5 0.0003035715
5 chany_bottom_out[19]:5 chany_bottom_out[19]:4 0.006941964
6 chany_bottom_out[19]:2 chany_bottom_out[19] 0.0004107143

*END

*D_NET mux_tree_tapbuf_size2_2_sram[1] 0.002413316 //LENGTH 18.335 LUMPCC 0 DR

*CONN
*I mem_bottom_track_31\/sky130_fd_sc_hd__dfxbp_1_1_:Q O *L 0 *C 95.985 20.740
*I mux_bottom_track_31\/mux_l2_in_0_:S I *L 0.00357 *C 86.580 14.960
*I mem_bottom_track_31\/FTB_30__55:A I *L 0.001746 *C 88.780 17.680
*N mux_tree_tapbuf_size2_2_sram[1]:3 *C 88.780 17.680
*N mux_tree_tapbuf_size2_2_sram[1]:4 *C 88.780 17.635
*N mux_tree_tapbuf_size2_2_sram[1]:5 *C 86.618 14.960
*N mux_tree_tapbuf_size2_2_sram[1]:6 *C 88.735 14.960
*N mux_tree_tapbuf_size2_2_sram[1]:7 *C 88.780 15.005
*N mux_tree_tapbuf_size2_2_sram[1]:8 *C 88.780 17.000
*N mux_tree_tapbuf_size2_2_sram[1]:9 *C 88.825 17.000
*N mux_tree_tapbuf_size2_2_sram[1]:10 *C 93.795 17.000
*N mux_tree_tapbuf_size2_2_sram[1]:11 *C 93.840 17.045
*N mux_tree_tapbuf_size2_2_sram[1]:12 *C 93.840 21.035
*N mux_tree_tapbuf_size2_2_sram[1]:13 *C 93.885 21.080
*N mux_tree_tapbuf_size2_2_sram[1]:14 *C 96.140 21.080
*N mux_tree_tapbuf_size2_2_sram[1]:15 *C 95.985 20.740

*CAP
0 mem_bottom_track_31\/sky130_fd_sc_hd__dfxbp_1_1_:Q 1e-06
1 mux_bottom_track_31\/mux_l2_in_0_:S 1e-06
2 mem_bottom_track_31\/FTB_30__55:A 1e-06
3 mux_tree_tapbuf_size2_2_sram[1]:3 3.543145e-05
4 mux_tree_tapbuf_size2_2_sram[1]:4 4.59819e-05
5 mux_tree_tapbuf_size2_2_sram[1]:5 0.0001887756
6 mux_tree_tapbuf_size2_2_sram[1]:6 0.0001887756
7 mux_tree_tapbuf_size2_2_sram[1]:7 0.0001204288
8 mux_tree_tapbuf_size2_2_sram[1]:8 0.0001987292
9 mux_tree_tapbuf_size2_2_sram[1]:9 0.0003485905
10 mux_tree_tapbuf_size2_2_sram[1]:10 0.0003485905
11 mux_tree_tapbuf_size2_2_sram[1]:11 0.0002507689
12 mux_tree_tapbuf_size2_2_sram[1]:12 0.0002507689
13 mux_tree_tapbuf_size2_2_sram[1]:13 0.0001776201
14 mux_tree_tapbuf_size2_2_sram[1]:14 0.0002027906
15 mux_tree_tapbuf_size2_2_sram[1]:15 5.30643e-05

*RES
0 mem_bottom_track_31\/sky130_fd_sc_hd__dfxbp_1_1_:Q mux_tree_tapbuf_size2_2_sram[1]:15 0.152
1 mux_tree_tapbuf_size2_2_sram[1]:3 mem_bottom_track_31\/FTB_30__55:A 0.152
2 mux_tree_tapbuf_size2_2_sram[1]:4 mux_tree_tapbuf_size2_2_sram[1]:3 0.0045
3 mux_tree_tapbuf_size2_2_sram[1]:9 mux_tree_tapbuf_size2_2_sram[1]:8 0.0045
4 mux_tree_tapbuf_size2_2_sram[1]:8 mux_tree_tapbuf_size2_2_sram[1]:7 0.00178125
5 mux_tree_tapbuf_size2_2_sram[1]:8 mux_tree_tapbuf_size2_2_sram[1]:4 0.0005669643
6 mux_tree_tapbuf_size2_2_sram[1]:10 mux_tree_tapbuf_size2_2_sram[1]:9 0.0044375
7 mux_tree_tapbuf_size2_2_sram[1]:11 mux_tree_tapbuf_size2_2_sram[1]:10 0.0045
8 mux_tree_tapbuf_size2_2_sram[1]:13 mux_tree_tapbuf_size2_2_sram[1]:12 0.0045
9 mux_tree_tapbuf_size2_2_sram[1]:12 mux_tree_tapbuf_size2_2_sram[1]:11 0.0035625
10 mux_tree_tapbuf_size2_2_sram[1]:15 mux_tree_tapbuf_size2_2_sram[1]:14 0.0003035715
11 mux_tree_tapbuf_size2_2_sram[1]:6 mux_tree_tapbuf_size2_2_sram[1]:5 0.001890625
12 mux_tree_tapbuf_size2_2_sram[1]:7 mux_tree_tapbuf_size2_2_sram[1]:6 0.0045
13 mux_tree_tapbuf_size2_2_sram[1]:5 mux_bottom_track_31\/mux_l2_in_0_:S 0.152
14 mux_tree_tapbuf_size2_2_sram[1]:14 mux_tree_tapbuf_size2_2_sram[1]:13 0.002013393

*END

*D_NET mux_tree_tapbuf_size2_mem_6_ccff_tail[0] 0.0007186498 //LENGTH 5.420 LUMPCC 7.034903e-05 DR

*CONN
*I mem_bottom_track_39\/FTB_34__59:X O *L 0 *C 58.585 12.920
*I mem_left_track_1\/sky130_fd_sc_hd__dfxbp_1_0_:D I *L 0.001695 *C 56.295 15.300
*N mux_tree_tapbuf_size2_mem_6_ccff_tail[0]:2 *C 56.333 15.300
*N mux_tree_tapbuf_size2_mem_6_ccff_tail[0]:3 *C 58.375 15.300
*N mux_tree_tapbuf_size2_mem_6_ccff_tail[0]:4 *C 58.420 15.255
*N mux_tree_tapbuf_size2_mem_6_ccff_tail[0]:5 *C 58.420 12.965
*N mux_tree_tapbuf_size2_mem_6_ccff_tail[0]:6 *C 58.420 12.920
*N mux_tree_tapbuf_size2_mem_6_ccff_tail[0]:7 *C 58.585 12.920

*CAP
0 mem_bottom_track_39\/FTB_34__59:X 1e-06
1 mem_left_track_1\/sky130_fd_sc_hd__dfxbp_1_0_:D 1e-06
2 mux_tree_tapbuf_size2_mem_6_ccff_tail[0]:2 0.0001562121
3 mux_tree_tapbuf_size2_mem_6_ccff_tail[0]:3 0.0001562121
4 mux_tree_tapbuf_size2_mem_6_ccff_tail[0]:4 0.0001123095
5 mux_tree_tapbuf_size2_mem_6_ccff_tail[0]:5 0.0001123095
6 mux_tree_tapbuf_size2_mem_6_ccff_tail[0]:6 5.556242e-05
7 mux_tree_tapbuf_size2_mem_6_ccff_tail[0]:7 5.369535e-05
8 mux_tree_tapbuf_size2_mem_6_ccff_tail[0]:4 chany_bottom_in[18]:20 3.517451e-05
9 mux_tree_tapbuf_size2_mem_6_ccff_tail[0]:5 chany_bottom_in[18]:21 3.517451e-05

*RES
0 mem_bottom_track_39\/FTB_34__59:X mux_tree_tapbuf_size2_mem_6_ccff_tail[0]:7 0.152
1 mux_tree_tapbuf_size2_mem_6_ccff_tail[0]:2 mem_left_track_1\/sky130_fd_sc_hd__dfxbp_1_0_:D 0.152
2 mux_tree_tapbuf_size2_mem_6_ccff_tail[0]:3 mux_tree_tapbuf_size2_mem_6_ccff_tail[0]:2 0.001823661
3 mux_tree_tapbuf_size2_mem_6_ccff_tail[0]:4 mux_tree_tapbuf_size2_mem_6_ccff_tail[0]:3 0.0045
4 mux_tree_tapbuf_size2_mem_6_ccff_tail[0]:6 mux_tree_tapbuf_size2_mem_6_ccff_tail[0]:5 0.0045
5 mux_tree_tapbuf_size2_mem_6_ccff_tail[0]:5 mux_tree_tapbuf_size2_mem_6_ccff_tail[0]:4 0.002044643
6 mux_tree_tapbuf_size2_mem_6_ccff_tail[0]:7 mux_tree_tapbuf_size2_mem_6_ccff_tail[0]:6 8.967391e-05

*END

*D_NET mux_tree_tapbuf_size3_mem_2_ccff_tail[0] 0.0008732895 //LENGTH 6.290 LUMPCC 0 DR

*CONN
*I mem_bottom_track_15\/FTB_15__40:X O *L 0 *C 43.465 19.720
*I mem_bottom_track_17\/sky130_fd_sc_hd__dfxbp_1_0_:D I *L 0.001695 *C 46.635 17.340
*N mux_tree_tapbuf_size3_mem_2_ccff_tail[0]:2 *C 46.635 17.340
*N mux_tree_tapbuf_size3_mem_2_ccff_tail[0]:3 *C 46.460 17.340
*N mux_tree_tapbuf_size3_mem_2_ccff_tail[0]:4 *C 46.460 17.385
*N mux_tree_tapbuf_size3_mem_2_ccff_tail[0]:5 *C 46.460 19.675
*N mux_tree_tapbuf_size3_mem_2_ccff_tail[0]:6 *C 46.415 19.720
*N mux_tree_tapbuf_size3_mem_2_ccff_tail[0]:7 *C 43.503 19.720

*CAP
0 mem_bottom_track_15\/FTB_15__40:X 1e-06
1 mem_bottom_track_17\/sky130_fd_sc_hd__dfxbp_1_0_:D 1e-06
2 mux_tree_tapbuf_size3_mem_2_ccff_tail[0]:2 5.526045e-05
3 mux_tree_tapbuf_size3_mem_2_ccff_tail[0]:3 5.964949e-05
4 mux_tree_tapbuf_size3_mem_2_ccff_tail[0]:4 0.0001522415
5 mux_tree_tapbuf_size3_mem_2_ccff_tail[0]:5 0.0001522415
6 mux_tree_tapbuf_size3_mem_2_ccff_tail[0]:6 0.0002259483
7 mux_tree_tapbuf_size3_mem_2_ccff_tail[0]:7 0.0002259483

*RES
0 mem_bottom_track_15\/FTB_15__40:X mux_tree_tapbuf_size3_mem_2_ccff_tail[0]:7 0.152
1 mux_tree_tapbuf_size3_mem_2_ccff_tail[0]:7 mux_tree_tapbuf_size3_mem_2_ccff_tail[0]:6 0.002600446
2 mux_tree_tapbuf_size3_mem_2_ccff_tail[0]:6 mux_tree_tapbuf_size3_mem_2_ccff_tail[0]:5 0.0045
3 mux_tree_tapbuf_size3_mem_2_ccff_tail[0]:5 mux_tree_tapbuf_size3_mem_2_ccff_tail[0]:4 0.002044643
4 mux_tree_tapbuf_size3_mem_2_ccff_tail[0]:3 mux_tree_tapbuf_size3_mem_2_ccff_tail[0]:2 9.51087e-05
5 mux_tree_tapbuf_size3_mem_2_ccff_tail[0]:4 mux_tree_tapbuf_size3_mem_2_ccff_tail[0]:3 0.0045