*SPEF "1481-1998"
*DESIGN "sb_1__1_"
*DATE "Tue Oct 27 11:35:07 2020"
*
*
*
*
*DIVIDER /
*DELIMITER :
*T_UNIT 1 NS
*C_UNIT 1 PF
*R_UNIT 1 KOHM
*L_UNIT 1 HENRY

// XY_UNIT 1 UM
// PARASITIC_TECH nominal at 25.000 degree

*PORTS
prog_clk[0] I *C 2.300 17.000
chany_top_in[0] I *C 65.780 97.240
chany_top_in[1] I *C 42.320 97.240
chany_top_in[2] I *C 56.120 97.240
chany_top_in[3] I *C 51.980 97.240
chany_top_in[4] I *C 49.680 97.240
chany_top_in[5] I *C 50.140 97.240
chany_top_in[6] I *C 55.200 97.240
chany_top_in[7] I *C 59.340 97.240
chany_top_in[8] I *C 56.120 97.240
chany_top_in[9] I *C 57.960 97.240
chany_top_in[10] I *C 53.360 97.240
chany_top_in[11] I *C 49.220 97.240
chany_top_in[12] I *C 47.840 97.240
chany_top_in[13] I *C 45.080 97.240
chany_top_in[14] I *C 54.280 97.240
chany_top_in[15] I *C 51.060 97.240
chany_top_in[16] I *C 51.520 97.240
chany_top_in[17] I *C 41.400 97.240
chany_top_in[18] I *C 39.560 97.240
chany_top_in[19] I *C 39.560 97.240
top_left_grid_pin_34_[0] I *C 23.000 97.240
top_left_grid_pin_35_[0] I *C 24.380 97.240
top_left_grid_pin_36_[0] I *C 22.540 97.240
top_left_grid_pin_37_[0] I *C 2.760 80.920
top_left_grid_pin_38_[0] I *C 21.620 97.240
top_left_grid_pin_39_[0] I *C 23.460 97.240
top_left_grid_pin_40_[0] I *C 20.700 97.240
top_left_grid_pin_41_[0] I *C 7.820 80.920
chanx_right_in[0] I *C 102.350 36.040
chanx_right_in[1] I *C 102.350 78.200
chanx_right_in[2] I *C 102.350 26.520
chanx_right_in[3] I *C 102.350 75.480
chanx_right_in[4] I *C 102.350 76.840
chanx_right_in[5] I *C 102.350 72.760
chanx_right_in[6] I *C 102.350 37.400
chanx_right_in[7] I *C 102.350 51.680
chanx_right_in[8] I *C 102.350 38.760
chanx_right_in[9] I *C 102.350 46.920
chanx_right_in[10] I *C 102.350 34.680
chanx_right_in[11] I *C 102.350 74.120
chanx_right_in[12] I *C 102.350 31.960
chanx_right_in[13] I *C 102.350 71.400
chanx_right_in[14] I *C 102.350 54.400
chanx_right_in[15] I *C 102.350 48.960
chanx_right_in[16] I *C 102.350 25.160
chanx_right_in[17] I *C 102.350 20.400
chanx_right_in[18] I *C 102.350 33.320
chanx_right_in[19] I *C 102.350 70.040
right_top_grid_pin_42_[0] I *C 94.760 80.920
right_top_grid_pin_43_[0] I *C 92.000 80.920
right_top_grid_pin_44_[0] I *C 97.060 80.920
right_top_grid_pin_45_[0] I *C 100.280 80.920
right_top_grid_pin_46_[0] I *C 99.360 80.920
right_top_grid_pin_47_[0] I *C 95.680 80.920
right_top_grid_pin_48_[0] I *C 98.440 80.920
right_top_grid_pin_49_[0] I *C 98.440 80.920
chany_bottom_in[0] I *C 55.200 0.680
chany_bottom_in[1] I *C 39.560 0.680
chany_bottom_in[2] I *C 68.540 0.680
chany_bottom_in[3] I *C 59.800 0.680
chany_bottom_in[4] I *C 69.460 0.680
chany_bottom_in[5] I *C 50.140 0.680
chany_bottom_in[6] I *C 70.380 0.680
chany_bottom_in[7] I *C 60.720 0.680
chany_bottom_in[8] I *C 67.620 0.680
chany_bottom_in[9] I *C 61.640 0.680
chany_bottom_in[10] I *C 46.000 0.680
chany_bottom_in[11] I *C 58.420 0.680
chany_bottom_in[12] I *C 37.720 0.680
chany_bottom_in[13] I *C 40.480 0.680
chany_bottom_in[14] I *C 52.440 0.680
chany_bottom_in[15] I *C 48.760 0.680
chany_bottom_in[16] I *C 38.640 0.680
chany_bottom_in[17] I *C 41.400 0.680
chany_bottom_in[18] I *C 45.080 0.680
chany_bottom_in[19] I *C 72.220 0.680
bottom_left_grid_pin_34_[0] I *C 20.700 0.680
bottom_left_grid_pin_35_[0] I *C 23.000 0.680
bottom_left_grid_pin_36_[0] I *C 22.540 0.680
bottom_left_grid_pin_37_[0] I *C 11.040 17.000
bottom_left_grid_pin_38_[0] I *C 21.620 0.680
bottom_left_grid_pin_39_[0] I *C 8.740 17.000
bottom_left_grid_pin_40_[0] I *C 19.090 6.800
bottom_left_grid_pin_41_[0] I *C 19.090 5.440
chanx_left_in[0] I *C 0.690 69.360
chanx_left_in[1] I *C 0.690 78.200
chanx_left_in[2] I *C 0.690 43.520
chanx_left_in[3] I *C 0.690 75.480
chanx_left_in[4] I *C 0.690 72.080
chanx_left_in[5] I *C 3.680 17.000
chanx_left_in[6] I *C 0.690 25.160
chanx_left_in[7] I *C 0.690 30.600
chanx_left_in[8] I *C 0.690 38.760
chanx_left_in[9] I *C 0.690 76.840
chanx_left_in[10] I *C 0.690 34.000
chanx_left_in[11] I *C 0.690 20.400
chanx_left_in[12] I *C 0.690 46.920
chanx_left_in[13] I *C 0.690 58.480
chanx_left_in[14] I *C 0.690 44.880
chanx_left_in[15] I *C 0.690 49.640
chanx_left_in[16] I *C 0.690 21.760
chanx_left_in[17] I *C 0.690 26.520
chanx_left_in[18] I *C 0.690 48.280
chanx_left_in[19] I *C 0.690 51.000
left_top_grid_pin_42_[0] I *C 24.840 97.240
left_top_grid_pin_43_[0] I *C 5.520 80.920
left_top_grid_pin_44_[0] I *C 4.600 80.920
left_top_grid_pin_45_[0] I *C 6.440 80.920
left_top_grid_pin_46_[0] I *C 3.680 80.920
left_top_grid_pin_47_[0] I *C 6.440 80.920
left_top_grid_pin_48_[0] I *C 8.740 80.920
left_top_grid_pin_49_[0] I *C 4.600 80.920
ccff_head[0] I *C 102.350 58.480
chany_top_out[0] O *C 66.700 97.240
chany_top_out[1] O *C 40.480 97.240
chany_top_out[2] O *C 64.860 97.240
chany_top_out[3] O *C 38.640 97.240
chany_top_out[4] O *C 69.460 97.240
chany_top_out[5] O *C 57.040 97.240
chany_top_out[6] O *C 68.540 97.240
chany_top_out[7] O *C 53.360 97.240
chany_top_out[8] O *C 67.620 97.240
chany_top_out[9] O *C 43.240 97.240
chany_top_out[10] O *C 70.380 97.240
chany_top_out[11] O *C 48.300 97.240
chany_top_out[12] O *C 71.300 97.240
chany_top_out[13] O *C 27.600 97.240
chany_top_out[14] O *C 60.260 97.240
chany_top_out[15] O *C 46.000 97.240
chany_top_out[16] O *C 61.180 97.240
chany_top_out[17] O *C 41.400 97.240
chany_top_out[18] O *C 37.720 97.240
chany_top_out[19] O *C 46.920 97.240
chanx_right_out[0] O *C 102.350 50.320
chanx_right_out[1] O *C 102.350 67.320
chanx_right_out[2] O *C 102.350 27.880
chanx_right_out[3] O *C 102.350 68.680
chanx_right_out[4] O *C 102.350 42.840
chanx_right_out[5] O *C 102.350 61.200
chanx_right_out[6] O *C 102.350 29.240
chanx_right_out[7] O *C 102.350 55.760
chanx_right_out[8] O *C 102.350 40.120
chanx_right_out[9] O *C 102.350 59.840
chanx_right_out[10] O *C 102.350 44.880
chanx_right_out[11] O *C 102.350 57.120
chanx_right_out[12] O *C 102.350 30.600
chanx_right_out[13] O *C 102.350 53.040
chanx_right_out[14] O *C 102.350 23.120
chanx_right_out[15] O *C 102.350 62.560
chanx_right_out[16] O *C 102.350 21.760
chanx_right_out[17] O *C 102.350 65.280
chanx_right_out[18] O *C 102.350 41.480
chanx_right_out[19] O *C 102.350 63.920
chany_bottom_out[0] O *C 56.120 0.680
chany_bottom_out[1] O *C 43.240 0.680
chany_bottom_out[2] O *C 57.500 0.680
chany_bottom_out[3] O *C 46.000 0.680
chany_bottom_out[4] O *C 66.700 0.680
chany_bottom_out[5] O *C 51.060 0.680
chany_bottom_out[6] O *C 63.020 0.680
chany_bottom_out[7] O *C 52.900 0.680
chany_bottom_out[8] O *C 65.780 0.680
chany_bottom_out[9] O *C 47.840 0.680
chany_bottom_out[10] O *C 63.940 0.680
chany_bottom_out[11] O *C 46.920 0.680
chany_bottom_out[12] O *C 57.040 0.680
chany_bottom_out[13] O *C 35.880 0.680
chany_bottom_out[14] O *C 64.860 0.680
chany_bottom_out[15] O *C 54.280 0.680
chany_bottom_out[16] O *C 71.300 0.680
chany_bottom_out[17] O *C 55.200 0.680
chany_bottom_out[18] O *C 51.980 0.680
chany_bottom_out[19] O *C 42.320 0.680
chanx_left_out[0] O *C 0.690 53.720
chanx_left_out[1] O *C 0.690 66.640
chanx_left_out[2] O *C 0.690 68.000
chanx_left_out[3] O *C 0.690 65.280
chanx_left_out[4] O *C 0.690 36.720
chanx_left_out[5] O *C 0.690 55.760
chanx_left_out[6] O *C 0.690 27.880
chanx_left_out[7] O *C 0.690 57.120
chanx_left_out[8] O *C 0.690 31.960
chanx_left_out[9] O *C 0.690 59.840
chanx_left_out[10] O *C 0.690 42.160
chanx_left_out[11] O *C 0.690 62.560
chanx_left_out[12] O *C 0.690 29.240
chanx_left_out[13] O *C 0.690 70.720
chanx_left_out[14] O *C 0.690 23.800
chanx_left_out[15] O *C 0.690 63.920
chanx_left_out[16] O *C 0.690 35.360
chanx_left_out[17] O *C 0.690 74.120
chanx_left_out[18] O *C 0.690 40.800
chanx_left_out[19] O *C 0.690 61.200
ccff_tail[0] O *C 0.690 52.360
VDD I *C 51.520 48.960
VSS I *C 51.520 48.960

*D_NET chany_top_in[2] 0.01935509 //LENGTH 105.345 LUMPCC 0.009538811 DR

*CONN
*P chany_top_in[2] I *L 0.29796 *C 56.120 96.710
*I mux_right_track_0\/mux_l1_in_0_:A1 I *L 0.00198 *C 56.220 66.980
*I mux_bottom_track_1\/mux_l1_in_0_:A1 I *L 0.00198 *C 50.600 25.500
*I FTB_1__0:A I *L 0.001767 *C 50.140 6.800
*I mux_left_track_1\/mux_l1_in_0_:A0 I *L 0.001631 *C 51.810 66.300
*N chany_top_in[2]:5 *C 51.810 66.300
*N chany_top_in[2]:6 *C 50.200 10.200
*N chany_top_in[2]:7 *C 50.178 6.800
*N chany_top_in[2]:8 *C 50.555 6.800
*N chany_top_in[2]:9 *C 50.600 6.845
*N chany_top_in[2]:10 *C 50.600 10.143
*N chany_top_in[2]:11 *C 50.600 10.200
*N chany_top_in[2]:12 *C 50.600 10.208
*N chany_top_in[2]:13 *C 50.200 27.200
*N chany_top_in[2]:14 *C 50.600 25.500
*N chany_top_in[2]:15 *C 50.600 25.545
*N chany_top_in[2]:16 *C 50.600 27.143
*N chany_top_in[2]:17 *C 50.600 27.200
*N chany_top_in[2]:18 *C 50.600 27.200
*N chany_top_in[2]:19 *C 50.600 65.273
*N chany_top_in[2]:20 *C 50.620 65.280
*N chany_top_in[2]:21 *C 51.973 65.280
*N chany_top_in[2]:22 *C 51.980 65.338
*N chany_top_in[2]:23 *C 51.980 66.255
*N chany_top_in[2]:24 *C 52.025 66.300
*N chany_top_in[2]:25 *C 54.280 66.300
*N chany_top_in[2]:26 *C 54.280 66.640
*N chany_top_in[2]:27 *C 54.740 66.640
*N chany_top_in[2]:28 *C 54.740 66.980
*N chany_top_in[2]:29 *C 56.133 66.980
*N chany_top_in[2]:30 *C 56.120 67.025
*N chany_top_in[2]:31 *C 56.120 67.943
*N chany_top_in[2]:32 *C 56.128 68.000
*N chany_top_in[2]:33 *C 57.020 68.000
*N chany_top_in[2]:34 *C 57.040 68.008
*N chany_top_in[2]:35 *C 57.040 94.520
*N chany_top_in[2]:36 *C 56.120 94.520

*CAP
0 chany_top_in[2] 0.0001704933
1 mux_right_track_0\/mux_l1_in_0_:A1 1e-06
2 mux_bottom_track_1\/mux_l1_in_0_:A1 1e-06
3 FTB_1__0:A 1e-06
4 mux_left_track_1\/mux_l1_in_0_:A0 1e-06
5 chany_top_in[2]:5 5.800716e-05
6 chany_top_in[2]:6 7.897007e-05
7 chany_top_in[2]:7 5.880023e-05
8 chany_top_in[2]:8 5.880023e-05
9 chany_top_in[2]:9 0.0001819257
10 chany_top_in[2]:10 0.0001819257
11 chany_top_in[2]:11 7.897007e-05
12 chany_top_in[2]:12 0.0004108837
13 chany_top_in[2]:13 0.0001337836
14 chany_top_in[2]:14 3.677437e-05
15 chany_top_in[2]:15 0.0001380122
16 chany_top_in[2]:16 0.0001380122
17 chany_top_in[2]:17 0.0001337836
18 chany_top_in[2]:18 0.001775273
19 chany_top_in[2]:19 0.001364389
20 chany_top_in[2]:20 0.0001889029
21 chany_top_in[2]:21 0.0001889029
22 chany_top_in[2]:22 9.486707e-05
23 chany_top_in[2]:23 9.486707e-05
24 chany_top_in[2]:24 0.000202605
25 chany_top_in[2]:25 0.000201475
26 chany_top_in[2]:26 6.3213e-05
27 chany_top_in[2]:27 6.558812e-05
28 chany_top_in[2]:28 0.000131668
29 chany_top_in[2]:29 0.0001045601
30 chany_top_in[2]:30 7.879789e-05
31 chany_top_in[2]:31 7.879789e-05
32 chany_top_in[2]:32 0.000142796
33 chany_top_in[2]:33 0.000142796
34 chany_top_in[2]:34 0.001397812
35 chany_top_in[2]:35 0.001431574
36 chany_top_in[2]:36 0.0002042555
37 chany_top_in[2]:34 chany_top_in[6]:26 0.001042651
38 chany_top_in[2]:36 chany_top_in[6]:29 1.049953e-05
39 chany_top_in[2]:35 chany_top_in[6]:28 1.049953e-05
40 chany_top_in[2]:35 chany_top_in[6]:27 0.001042651
41 chany_top_in[2]:12 chany_top_in[18]:27 0.0004057641
42 chany_top_in[2]:12 chany_top_in[18]:28 0.0003144452
43 chany_top_in[2]:19 chany_top_in[18]:21 0.0002516985
44 chany_top_in[2]:18 chany_top_in[18]:21 0.0003144452
45 chany_top_in[2]:18 chany_top_in[18]:28 0.0006574625
46 chany_top_in[2]:36 chany_top_in[18]:41 2.618569e-05
47 chany_top_in[2]:35 chany_top_in[18]:40 2.618569e-05
48 chany_top_in[2]:12 chanx_right_in[2]:34 0.0007202093
49 chany_top_in[2]:23 chanx_right_in[2]:12 1.988262e-06
50 chany_top_in[2]:22 chanx_right_in[2]:11 1.988262e-06
51 chany_top_in[2]:19 chanx_right_in[2]:33 0.0001140899
52 chany_top_in[2]:18 chanx_right_in[2]:33 0.0007202093
53 chany_top_in[2]:18 chanx_right_in[2]:34 0.0001140899
54 chany_top_in[2]:19 chanx_right_in[18]:15 0.0003389625
55 chany_top_in[2]:18 chanx_right_in[18]:16 0.0003389625
56 chany_top_in[2]:9 chany_bottom_in[5] 5.72888e-05
57 chany_top_in[2]:10 chany_bottom_in[5]:39 5.72888e-05
58 chany_top_in[2]:11 chany_bottom_in[5]:37 5.03872e-06
59 chany_top_in[2]:19 chany_bottom_in[5]:18 0.0002214493
60 chany_top_in[2]:19 chany_bottom_in[5]:35 0.0001142517
61 chany_top_in[2]:18 chany_bottom_in[5]:34 0.0002214493
62 chany_top_in[2]:18 chany_bottom_in[5]:36 0.0001142517
63 chany_top_in[2]:6 chany_bottom_in[5]:38 5.03872e-06
64 chany_top_in[2]:19 chany_bottom_in[6]:23 0.001144883
65 chany_top_in[2]:18 chany_bottom_in[6]:24 0.001144883

*RES
0 chany_top_in[2] chany_top_in[2]:36 0.0003430999
1 chany_top_in[2]:7 FTB_1__0:A 0.152
2 chany_top_in[2]:8 chany_top_in[2]:7 0.0003370536
3 chany_top_in[2]:9 chany_top_in[2]:8 0.0045
4 chany_top_in[2]:10 chany_top_in[2]:9 0.002944197
5 chany_top_in[2]:11 chany_top_in[2]:10 0.00341
6 chany_top_in[2]:11 chany_top_in[2]:6 5.69697e-05
7 chany_top_in[2]:12 chany_top_in[2]:11 0.00341
8 chany_top_in[2]:24 chany_top_in[2]:23 0.0045
9 chany_top_in[2]:24 chany_top_in[2]:5 0.0001168478
10 chany_top_in[2]:23 chany_top_in[2]:22 0.0008191965
11 chany_top_in[2]:22 chany_top_in[2]:21 0.00341
12 chany_top_in[2]:21 chany_top_in[2]:20 0.0002118916
13 chany_top_in[2]:20 chany_top_in[2]:19 0.00341
14 chany_top_in[2]:19 chany_top_in[2]:18 0.005964691
15 chany_top_in[2]:17 chany_top_in[2]:16 0.00341
16 chany_top_in[2]:17 chany_top_in[2]:13 5.69697e-05
17 chany_top_in[2]:18 chany_top_in[2]:17 0.00341
18 chany_top_in[2]:18 chany_top_in[2]:12 0.002662158
19 chany_top_in[2]:16 chany_top_in[2]:15 0.001426339
20 chany_top_in[2]:14 mux_bottom_track_1\/mux_l1_in_0_:A1 0.152
21 chany_top_in[2]:15 chany_top_in[2]:14 0.0045
22 chany_top_in[2]:29 mux_right_track_0\/mux_l1_in_0_:A1 0.152
23 chany_top_in[2]:29 chany_top_in[2]:28 0.001243304
24 chany_top_in[2]:5 mux_left_track_1\/mux_l1_in_0_:A0 0.152
25 chany_top_in[2]:30 chany_top_in[2]:29 0.0045
26 chany_top_in[2]:31 chany_top_in[2]:30 0.0008191965
27 chany_top_in[2]:32 chany_top_in[2]:31 0.00341
28 chany_top_in[2]:33 chany_top_in[2]:32 0.000139825
29 chany_top_in[2]:34 chany_top_in[2]:33 0.00341
30 chany_top_in[2]:25 chany_top_in[2]:24 0.002013393
31 chany_top_in[2]:26 chany_top_in[2]:25 0.0003035715
32 chany_top_in[2]:27 chany_top_in[2]:26 0.0004107143
33 chany_top_in[2]:28 chany_top_in[2]:27 0.0003035714
34 chany_top_in[2]:36 chany_top_in[2]:35 0.0001441333
35 chany_top_in[2]:35 chany_top_in[2]:34 0.004153625

*END

*D_NET chany_top_out[16] 0.001386954 //LENGTH 9.850 LUMPCC 0 DR

*CONN
*I mux_top_track_32\/sky130_fd_sc_hd__buf_4_0_:X O *L 0 *C 65.320 91.460
*P chany_top_out[16] O *L 0.7423 *C 61.180 96.595
*N chany_top_out[16]:2 *C 61.180 91.460
*N chany_top_out[16]:3 *C 61.640 91.460
*N chany_top_out[16]:4 *C 61.685 91.460
*N chany_top_out[16]:5 *C 65.282 91.460

*CAP
0 mux_top_track_32\/sky130_fd_sc_hd__buf_4_0_:X 1e-06
1 chany_top_out[16] 0.0003492787
2 chany_top_out[16]:2 0.0003864038
3 chany_top_out[16]:3 7.289187e-05
4 chany_top_out[16]:4 0.0002886899
5 chany_top_out[16]:5 0.0002886899

*RES
0 mux_top_track_32\/sky130_fd_sc_hd__buf_4_0_:X chany_top_out[16]:5 0.152
1 chany_top_out[16]:4 chany_top_out[16]:3 0.0045
2 chany_top_out[16]:3 chany_top_out[16]:2 0.0004107143
3 chany_top_out[16]:5 chany_top_out[16]:4 0.003212054
4 chany_top_out[16]:2 chany_top_out[16] 0.004584821

*END

*D_NET chanx_left_out[8] 0.0006316884 //LENGTH 4.925 LUMPCC 0 DR

*CONN
*I mux_left_track_17\/sky130_fd_sc_hd__buf_4_0_:X O *L 0 *C 3.625 33.660
*P chanx_left_out[8] O *L 0.7423 *C 1.298 31.960
*N chanx_left_out[8]:2 *C 1.380 31.960
*N chanx_left_out[8]:3 *C 1.380 32.017
*N chanx_left_out[8]:4 *C 1.380 33.615
*N chanx_left_out[8]:5 *C 1.425 33.660
*N chanx_left_out[8]:6 *C 3.588 33.660

*CAP
0 mux_left_track_17\/sky130_fd_sc_hd__buf_4_0_:X 1e-06
1 chanx_left_out[8] 3.017887e-05
2 chanx_left_out[8]:2 3.017887e-05
3 chanx_left_out[8]:3 0.0001139772
4 chanx_left_out[8]:4 0.0001139772
5 chanx_left_out[8]:5 0.0001711882
6 chanx_left_out[8]:6 0.0001711882

*RES
0 mux_left_track_17\/sky130_fd_sc_hd__buf_4_0_:X chanx_left_out[8]:6 0.152
1 chanx_left_out[8]:6 chanx_left_out[8]:5 0.001930804
2 chanx_left_out[8]:5 chanx_left_out[8]:4 0.0045
3 chanx_left_out[8]:4 chanx_left_out[8]:3 0.001426339
4 chanx_left_out[8]:3 chanx_left_out[8]:2 0.00341
5 chanx_left_out[8]:2 chanx_left_out[8] 2.35e-05

*END

*D_NET mux_tree_tapbuf_size10_10_sram[3] 0.001945657 //LENGTH 12.545 LUMPCC 0.0001559483 DR

*CONN
*I mem_left_track_17\/sky130_fd_sc_hd__dfxbp_1_3_:Q O *L 0 *C 15.280 34.680
*I mux_left_track_17\/mux_l4_in_0_:S I *L 0.00357 *C 12.980 36.720
*I mem_left_track_17\/FTB_23__74:A I *L 0.001776 *C 18.400 39.440
*N mux_tree_tapbuf_size10_10_sram[3]:3 *C 18.400 39.440
*N mux_tree_tapbuf_size10_10_sram[3]:4 *C 18.400 39.100
*N mux_tree_tapbuf_size10_10_sram[3]:5 *C 14.305 39.100
*N mux_tree_tapbuf_size10_10_sram[3]:6 *C 14.260 39.055
*N mux_tree_tapbuf_size10_10_sram[3]:7 *C 13.018 36.720
*N mux_tree_tapbuf_size10_10_sram[3]:8 *C 14.215 36.720
*N mux_tree_tapbuf_size10_10_sram[3]:9 *C 14.260 36.720
*N mux_tree_tapbuf_size10_10_sram[3]:10 *C 14.260 34.725
*N mux_tree_tapbuf_size10_10_sram[3]:11 *C 14.305 34.680
*N mux_tree_tapbuf_size10_10_sram[3]:12 *C 15.243 34.680

*CAP
0 mem_left_track_17\/sky130_fd_sc_hd__dfxbp_1_3_:Q 1e-06
1 mux_left_track_17\/mux_l4_in_0_:S 1e-06
2 mem_left_track_17\/FTB_23__74:A 1e-06
3 mux_tree_tapbuf_size10_10_sram[3]:3 6.547719e-05
4 mux_tree_tapbuf_size10_10_sram[3]:4 0.0003926757
5 mux_tree_tapbuf_size10_10_sram[3]:5 0.0003609593
6 mux_tree_tapbuf_size10_10_sram[3]:6 0.0001372156
7 mux_tree_tapbuf_size10_10_sram[3]:7 0.0001271091
8 mux_tree_tapbuf_size10_10_sram[3]:8 0.0001271091
9 mux_tree_tapbuf_size10_10_sram[3]:9 0.0002933833
10 mux_tree_tapbuf_size10_10_sram[3]:10 0.0001201215
11 mux_tree_tapbuf_size10_10_sram[3]:11 8.132902e-05
12 mux_tree_tapbuf_size10_10_sram[3]:12 8.132902e-05
13 mux_tree_tapbuf_size10_10_sram[3]:9 mux_tree_tapbuf_size10_mem_10_ccff_tail[0]:7 1.591436e-05
14 mux_tree_tapbuf_size10_10_sram[3]:5 mux_tree_tapbuf_size10_mem_10_ccff_tail[0]:8 6.205979e-05
15 mux_tree_tapbuf_size10_10_sram[3]:6 mux_tree_tapbuf_size10_mem_10_ccff_tail[0]:6 1.591436e-05
16 mux_tree_tapbuf_size10_10_sram[3]:4 mux_tree_tapbuf_size10_mem_10_ccff_tail[0]:9 6.205979e-05

*RES
0 mem_left_track_17\/sky130_fd_sc_hd__dfxbp_1_3_:Q mux_tree_tapbuf_size10_10_sram[3]:12 0.152
1 mux_tree_tapbuf_size10_10_sram[3]:12 mux_tree_tapbuf_size10_10_sram[3]:11 0.0008370536
2 mux_tree_tapbuf_size10_10_sram[3]:11 mux_tree_tapbuf_size10_10_sram[3]:10 0.0045
3 mux_tree_tapbuf_size10_10_sram[3]:10 mux_tree_tapbuf_size10_10_sram[3]:9 0.00178125
4 mux_tree_tapbuf_size10_10_sram[3]:8 mux_tree_tapbuf_size10_10_sram[3]:7 0.001069196
5 mux_tree_tapbuf_size10_10_sram[3]:9 mux_tree_tapbuf_size10_10_sram[3]:8 0.0045
6 mux_tree_tapbuf_size10_10_sram[3]:9 mux_tree_tapbuf_size10_10_sram[3]:6 0.002084821
7 mux_tree_tapbuf_size10_10_sram[3]:7 mux_left_track_17\/mux_l4_in_0_:S 0.152
8 mux_tree_tapbuf_size10_10_sram[3]:5 mux_tree_tapbuf_size10_10_sram[3]:4 0.00365625
9 mux_tree_tapbuf_size10_10_sram[3]:6 mux_tree_tapbuf_size10_10_sram[3]:5 0.0045
10 mux_tree_tapbuf_size10_10_sram[3]:3 mem_left_track_17\/FTB_23__74:A 0.152
11 mux_tree_tapbuf_size10_10_sram[3]:4 mux_tree_tapbuf_size10_10_sram[3]:3 0.0003035715

*END

*D_NET mux_tree_tapbuf_size10_1_sram[0] 0.01238367 //LENGTH 95.820 LUMPCC 0.001780742 DR

*CONN
*I mem_top_track_16\/sky130_fd_sc_hd__dfxbp_1_0_:Q O *L 0 *C 80.245 4.760
*I mem_top_track_16\/sky130_fd_sc_hd__dfxbp_1_1_:D I *L 0.001695 *C 72.395 26.180
*I mux_top_track_16\/mux_l1_in_1_:S I *L 0.00357 *C 65.220 36.040
*I mux_top_track_16\/mux_l1_in_2_:S I *L 0.00357 *C 66.140 34.000
*I mux_top_track_16\/mux_l1_in_0_:S I *L 0.00357 *C 67.060 79.560
*N mux_tree_tapbuf_size10_1_sram[0]:5 *C 67.023 79.560
*N mux_tree_tapbuf_size10_1_sram[0]:6 *C 66.285 79.560
*N mux_tree_tapbuf_size10_1_sram[0]:7 *C 66.240 79.515
*N mux_tree_tapbuf_size10_1_sram[0]:8 *C 66.140 34.000
*N mux_tree_tapbuf_size10_1_sram[0]:9 *C 66.240 34.045
*N mux_tree_tapbuf_size10_1_sram[0]:10 *C 66.240 36.040
*N mux_tree_tapbuf_size10_1_sram[0]:11 *C 65.258 36.040
*N mux_tree_tapbuf_size10_1_sram[0]:12 *C 66.655 36.040
*N mux_tree_tapbuf_size10_1_sram[0]:13 *C 66.700 35.995
*N mux_tree_tapbuf_size10_1_sram[0]:14 *C 66.700 34.680
*N mux_tree_tapbuf_size10_1_sram[0]:15 *C 67.160 34.680
*N mux_tree_tapbuf_size10_1_sram[0]:16 *C 67.160 26.225
*N mux_tree_tapbuf_size10_1_sram[0]:17 *C 67.205 26.180
*N mux_tree_tapbuf_size10_1_sram[0]:18 *C 72.395 26.180
*N mux_tree_tapbuf_size10_1_sram[0]:19 *C 75.395 26.180
*N mux_tree_tapbuf_size10_1_sram[0]:20 *C 75.440 26.135
*N mux_tree_tapbuf_size10_1_sram[0]:21 *C 75.440 4.805
*N mux_tree_tapbuf_size10_1_sram[0]:22 *C 75.485 4.760
*N mux_tree_tapbuf_size10_1_sram[0]:23 *C 80.208 4.760

*CAP
0 mem_top_track_16\/sky130_fd_sc_hd__dfxbp_1_0_:Q 1e-06
1 mem_top_track_16\/sky130_fd_sc_hd__dfxbp_1_1_:D 1e-06
2 mux_top_track_16\/mux_l1_in_1_:S 1e-06
3 mux_top_track_16\/mux_l1_in_2_:S 1e-06
4 mux_top_track_16\/mux_l1_in_0_:S 1e-06
5 mux_tree_tapbuf_size10_1_sram[0]:5 8.393602e-05
6 mux_tree_tapbuf_size10_1_sram[0]:6 8.393602e-05
7 mux_tree_tapbuf_size10_1_sram[0]:7 0.002357446
8 mux_tree_tapbuf_size10_1_sram[0]:8 3.087598e-05
9 mux_tree_tapbuf_size10_1_sram[0]:9 8.596022e-05
10 mux_tree_tapbuf_size10_1_sram[0]:10 0.002485344
11 mux_tree_tapbuf_size10_1_sram[0]:11 0.0001365086
12 mux_tree_tapbuf_size10_1_sram[0]:12 0.0001365086
13 mux_tree_tapbuf_size10_1_sram[0]:13 0.0001385579
14 mux_tree_tapbuf_size10_1_sram[0]:14 0.0001278852
15 mux_tree_tapbuf_size10_1_sram[0]:15 0.0003892034
16 mux_tree_tapbuf_size10_1_sram[0]:16 0.0003579387
17 mux_tree_tapbuf_size10_1_sram[0]:17 0.0003537583
18 mux_tree_tapbuf_size10_1_sram[0]:18 0.0005838591
19 mux_tree_tapbuf_size10_1_sram[0]:19 0.0002013212
20 mux_tree_tapbuf_size10_1_sram[0]:20 0.001247469
21 mux_tree_tapbuf_size10_1_sram[0]:21 0.001247469
22 mux_tree_tapbuf_size10_1_sram[0]:22 0.0002749762
23 mux_tree_tapbuf_size10_1_sram[0]:23 0.0002749762
24 mux_tree_tapbuf_size10_1_sram[0]:7 prog_clk[0]:410 7.514423e-05
25 mux_tree_tapbuf_size10_1_sram[0]:7 prog_clk[0]:432 1.423052e-05
26 mux_tree_tapbuf_size10_1_sram[0]:9 prog_clk[0]:435 2.6829e-06
27 mux_tree_tapbuf_size10_1_sram[0]:13 prog_clk[0]:432 6.664467e-06
28 mux_tree_tapbuf_size10_1_sram[0]:20 prog_clk[0]:396 3.134979e-05
29 mux_tree_tapbuf_size10_1_sram[0]:20 prog_clk[0]:445 1.55302e-06
30 mux_tree_tapbuf_size10_1_sram[0]:20 prog_clk[0]:451 6.135211e-06
31 mux_tree_tapbuf_size10_1_sram[0]:20 prog_clk[0]:452 3.771619e-06
32 mux_tree_tapbuf_size10_1_sram[0]:21 prog_clk[0]:397 3.134979e-05
33 mux_tree_tapbuf_size10_1_sram[0]:21 prog_clk[0]:448 6.135211e-06
34 mux_tree_tapbuf_size10_1_sram[0]:21 prog_clk[0]:451 3.771619e-06
35 mux_tree_tapbuf_size10_1_sram[0]:21 prog_clk[0]:452 1.55302e-06
36 mux_tree_tapbuf_size10_1_sram[0]:18 prog_clk[0]:340 1.31595e-05
37 mux_tree_tapbuf_size10_1_sram[0]:17 prog_clk[0]:341 1.31595e-05
38 mux_tree_tapbuf_size10_1_sram[0]:16 prog_clk[0]:435 0.0001558316
39 mux_tree_tapbuf_size10_1_sram[0]:16 prog_clk[0]:436 6.447123e-05
40 mux_tree_tapbuf_size10_1_sram[0]:10 prog_clk[0]:411 7.514423e-05
41 mux_tree_tapbuf_size10_1_sram[0]:10 prog_clk[0]:432 2.6829e-06
42 mux_tree_tapbuf_size10_1_sram[0]:10 prog_clk[0]:435 1.423052e-05
43 mux_tree_tapbuf_size10_1_sram[0]:14 prog_clk[0]:435 6.664467e-06
44 mux_tree_tapbuf_size10_1_sram[0]:15 prog_clk[0]:432 0.0001558316
45 mux_tree_tapbuf_size10_1_sram[0]:15 prog_clk[0]:435 6.447123e-05
46 mux_tree_tapbuf_size10_1_sram[0]:22 mux_tree_tapbuf_size10_mem_0_ccff_tail[0]:2 0.0001038784
47 mux_tree_tapbuf_size10_1_sram[0]:23 mux_tree_tapbuf_size10_mem_0_ccff_tail[0]:3 0.0001038784
48 mux_tree_tapbuf_size10_1_sram[0]:7 mux_tree_tapbuf_size7_0_sram[0]:9 0.0004114983
49 mux_tree_tapbuf_size10_1_sram[0]:10 mux_tree_tapbuf_size7_0_sram[0]:8 0.0004114983

*RES
0 mem_top_track_16\/sky130_fd_sc_hd__dfxbp_1_0_:Q mux_tree_tapbuf_size10_1_sram[0]:23 0.152
1 mux_tree_tapbuf_size10_1_sram[0]:6 mux_tree_tapbuf_size10_1_sram[0]:5 0.0006584821
2 mux_tree_tapbuf_size10_1_sram[0]:7 mux_tree_tapbuf_size10_1_sram[0]:6 0.0045
3 mux_tree_tapbuf_size10_1_sram[0]:5 mux_top_track_16\/mux_l1_in_0_:S 0.152
4 mux_tree_tapbuf_size10_1_sram[0]:8 mux_top_track_16\/mux_l1_in_2_:S 0.152
5 mux_tree_tapbuf_size10_1_sram[0]:9 mux_tree_tapbuf_size10_1_sram[0]:8 0.0045
6 mux_tree_tapbuf_size10_1_sram[0]:12 mux_tree_tapbuf_size10_1_sram[0]:11 0.001247768
7 mux_tree_tapbuf_size10_1_sram[0]:13 mux_tree_tapbuf_size10_1_sram[0]:12 0.0045
8 mux_tree_tapbuf_size10_1_sram[0]:13 mux_tree_tapbuf_size10_1_sram[0]:10 0.0004107143
9 mux_tree_tapbuf_size10_1_sram[0]:11 mux_top_track_16\/mux_l1_in_1_:S 0.152
10 mux_tree_tapbuf_size10_1_sram[0]:19 mux_tree_tapbuf_size10_1_sram[0]:18 0.002678572
11 mux_tree_tapbuf_size10_1_sram[0]:20 mux_tree_tapbuf_size10_1_sram[0]:19 0.0045
12 mux_tree_tapbuf_size10_1_sram[0]:22 mux_tree_tapbuf_size10_1_sram[0]:21 0.0045
13 mux_tree_tapbuf_size10_1_sram[0]:21 mux_tree_tapbuf_size10_1_sram[0]:20 0.01904465
14 mux_tree_tapbuf_size10_1_sram[0]:23 mux_tree_tapbuf_size10_1_sram[0]:22 0.004216518
15 mux_tree_tapbuf_size10_1_sram[0]:18 mem_top_track_16\/sky130_fd_sc_hd__dfxbp_1_1_:D 0.152
16 mux_tree_tapbuf_size10_1_sram[0]:18 mux_tree_tapbuf_size10_1_sram[0]:17 0.004633929
17 mux_tree_tapbuf_size10_1_sram[0]:17 mux_tree_tapbuf_size10_1_sram[0]:16 0.0045
18 mux_tree_tapbuf_size10_1_sram[0]:16 mux_tree_tapbuf_size10_1_sram[0]:15 0.007549108
19 mux_tree_tapbuf_size10_1_sram[0]:10 mux_tree_tapbuf_size10_1_sram[0]:9 0.00178125
20 mux_tree_tapbuf_size10_1_sram[0]:10 mux_tree_tapbuf_size10_1_sram[0]:7 0.03881697
21 mux_tree_tapbuf_size10_1_sram[0]:14 mux_tree_tapbuf_size10_1_sram[0]:13 0.001174107
22 mux_tree_tapbuf_size10_1_sram[0]:15 mux_tree_tapbuf_size10_1_sram[0]:14 0.0004107143

*END

*D_NET mux_tree_tapbuf_size10_6_sram[3] 0.000914293 //LENGTH 6.500 LUMPCC 0 DR

*CONN
*I mem_bottom_track_9\/sky130_fd_sc_hd__dfxbp_1_3_:Q O *L 0 *C 73.445 6.800
*I mux_bottom_track_9\/mux_l4_in_0_:S I *L 0.00357 *C 71.880 8.840
*I mem_bottom_track_9\/FTB_19__70:A I *L 0.001776 *C 75.440 6.800
*N mux_tree_tapbuf_size10_6_sram[3]:3 *C 75.440 6.800
*N mux_tree_tapbuf_size10_6_sram[3]:4 *C 71.918 8.840
*N mux_tree_tapbuf_size10_6_sram[3]:5 *C 72.635 8.840
*N mux_tree_tapbuf_size10_6_sram[3]:6 *C 72.680 8.795
*N mux_tree_tapbuf_size10_6_sram[3]:7 *C 72.680 6.845
*N mux_tree_tapbuf_size10_6_sram[3]:8 *C 72.725 6.800
*N mux_tree_tapbuf_size10_6_sram[3]:9 *C 73.445 6.800

*CAP
0 mem_bottom_track_9\/sky130_fd_sc_hd__dfxbp_1_3_:Q 1e-06
1 mux_bottom_track_9\/mux_l4_in_0_:S 1e-06
2 mem_bottom_track_9\/FTB_19__70:A 1e-06
3 mux_tree_tapbuf_size10_6_sram[3]:3 0.0001535391
4 mux_tree_tapbuf_size10_6_sram[3]:4 7.567002e-05
5 mux_tree_tapbuf_size10_6_sram[3]:5 7.567002e-05
6 mux_tree_tapbuf_size10_6_sram[3]:6 0.000174201
7 mux_tree_tapbuf_size10_6_sram[3]:7 0.000174201
8 mux_tree_tapbuf_size10_6_sram[3]:8 5.341231e-05
9 mux_tree_tapbuf_size10_6_sram[3]:9 0.0002045996

*RES
0 mem_bottom_track_9\/sky130_fd_sc_hd__dfxbp_1_3_:Q mux_tree_tapbuf_size10_6_sram[3]:9 0.152
1 mux_tree_tapbuf_size10_6_sram[3]:9 mux_tree_tapbuf_size10_6_sram[3]:8 0.0006428571
2 mux_tree_tapbuf_size10_6_sram[3]:9 mux_tree_tapbuf_size10_6_sram[3]:3 0.00178125
3 mux_tree_tapbuf_size10_6_sram[3]:3 mem_bottom_track_9\/FTB_19__70:A 0.152
4 mux_tree_tapbuf_size10_6_sram[3]:4 mux_bottom_track_9\/mux_l4_in_0_:S 0.152
5 mux_tree_tapbuf_size10_6_sram[3]:5 mux_tree_tapbuf_size10_6_sram[3]:4 0.000640625
6 mux_tree_tapbuf_size10_6_sram[3]:6 mux_tree_tapbuf_size10_6_sram[3]:5 0.0045
7 mux_tree_tapbuf_size10_6_sram[3]:8 mux_tree_tapbuf_size10_6_sram[3]:7 0.0045
8 mux_tree_tapbuf_size10_6_sram[3]:7 mux_tree_tapbuf_size10_6_sram[3]:6 0.001741072

*END

*D_NET mux_tree_tapbuf_size10_8_sram[3] 0.002994823 //LENGTH 19.210 LUMPCC 0 DR

*CONN
*I mem_bottom_track_25\/sky130_fd_sc_hd__dfxbp_1_3_:Q O *L 0 *C 56.885 28.220
*I mux_bottom_track_25\/mux_l4_in_0_:S I *L 0.00357 *C 53.460 25.160
*I mem_bottom_track_25\/FTB_21__72:A I *L 0.001776 *C 45.080 28.560
*N mux_tree_tapbuf_size10_8_sram[3]:3 *C 45.080 28.560
*N mux_tree_tapbuf_size10_8_sram[3]:4 *C 45.080 28.515
*N mux_tree_tapbuf_size10_8_sram[3]:5 *C 45.080 25.205
*N mux_tree_tapbuf_size10_8_sram[3]:6 *C 45.125 25.160
*N mux_tree_tapbuf_size10_8_sram[3]:7 *C 53.460 25.160
*N mux_tree_tapbuf_size10_8_sram[3]:8 *C 56.535 25.160
*N mux_tree_tapbuf_size10_8_sram[3]:9 *C 56.580 25.205
*N mux_tree_tapbuf_size10_8_sram[3]:10 *C 56.580 28.175
*N mux_tree_tapbuf_size10_8_sram[3]:11 *C 56.580 28.220
*N mux_tree_tapbuf_size10_8_sram[3]:12 *C 56.885 28.220

*CAP
0 mem_bottom_track_25\/sky130_fd_sc_hd__dfxbp_1_3_:Q 1e-06
1 mux_bottom_track_25\/mux_l4_in_0_:S 1e-06
2 mem_bottom_track_25\/FTB_21__72:A 1e-06
3 mux_tree_tapbuf_size10_8_sram[3]:3 4.003862e-05
4 mux_tree_tapbuf_size10_8_sram[3]:4 0.0002546243
5 mux_tree_tapbuf_size10_8_sram[3]:5 0.0002546243
6 mux_tree_tapbuf_size10_8_sram[3]:6 0.0006362848
7 mux_tree_tapbuf_size10_8_sram[3]:7 0.0009405616
8 mux_tree_tapbuf_size10_8_sram[3]:8 0.0002721709
9 mux_tree_tapbuf_size10_8_sram[3]:9 0.0002273469
10 mux_tree_tapbuf_size10_8_sram[3]:10 0.0002273469
11 mux_tree_tapbuf_size10_8_sram[3]:11 6.900047e-05
12 mux_tree_tapbuf_size10_8_sram[3]:12 6.982354e-05

*RES
0 mem_bottom_track_25\/sky130_fd_sc_hd__dfxbp_1_3_:Q mux_tree_tapbuf_size10_8_sram[3]:12 0.152
1 mux_tree_tapbuf_size10_8_sram[3]:7 mux_bottom_track_25\/mux_l4_in_0_:S 0.152
2 mux_tree_tapbuf_size10_8_sram[3]:7 mux_tree_tapbuf_size10_8_sram[3]:6 0.007441965
3 mux_tree_tapbuf_size10_8_sram[3]:6 mux_tree_tapbuf_size10_8_sram[3]:5 0.0045
4 mux_tree_tapbuf_size10_8_sram[3]:5 mux_tree_tapbuf_size10_8_sram[3]:4 0.002955357
5 mux_tree_tapbuf_size10_8_sram[3]:3 mem_bottom_track_25\/FTB_21__72:A 0.152
6 mux_tree_tapbuf_size10_8_sram[3]:4 mux_tree_tapbuf_size10_8_sram[3]:3 0.0045
7 mux_tree_tapbuf_size10_8_sram[3]:8 mux_tree_tapbuf_size10_8_sram[3]:7 0.002745536
8 mux_tree_tapbuf_size10_8_sram[3]:9 mux_tree_tapbuf_size10_8_sram[3]:8 0.0045
9 mux_tree_tapbuf_size10_8_sram[3]:11 mux_tree_tapbuf_size10_8_sram[3]:10 0.0045
10 mux_tree_tapbuf_size10_8_sram[3]:10 mux_tree_tapbuf_size10_8_sram[3]:9 0.002651786
11 mux_tree_tapbuf_size10_8_sram[3]:12 mux_tree_tapbuf_size10_8_sram[3]:11 0.0001657609

*END
