*SPEF "1481-1998"
*DESIGN "sb_2__0_"
*DATE "Mon Oct 26 23:03:32 2020"
*
*
*
*
*DIVIDER /
*DELIMITER :
*T_UNIT 1 NS
*C_UNIT 1 PF
*R_UNIT 1 KOHM
*L_UNIT 1 HENRY

// XY_UNIT 1 UM
// PARASITIC_TECH nominal at 25.000 degree

*PORTS
prog_clk[0] I *C 29.210 99.960
chany_top_in[0] I *C 80.500 102.680
chany_top_in[1] I *C 57.500 102.680
chany_top_in[2] I *C 82.340 102.680
chany_top_in[3] I *C 74.060 102.680
chany_top_in[4] I *C 51.980 102.680
chany_top_in[5] I *C 60.260 102.680
chany_top_in[6] I *C 74.980 102.680
chany_top_in[7] I *C 66.700 102.680
chany_top_in[8] I *C 72.220 102.680
chany_top_in[9] I *C 67.620 102.680
chany_top_in[10] I *C 73.140 102.680
chany_top_in[11] I *C 75.900 102.680
chany_top_in[12] I *C 52.900 102.680
chany_top_in[13] I *C 63.480 102.680
chany_top_in[14] I *C 54.740 102.680
chany_top_in[15] I *C 53.820 102.680
chany_top_in[16] I *C 69.460 102.680
chany_top_in[17] I *C 81.420 102.680
chany_top_in[18] I *C 84.640 102.680
chany_top_in[19] I *C 59.340 102.680
top_left_grid_pin_34_[0] I *C 32.660 102.680
top_left_grid_pin_35_[0] I *C 30.820 102.680
top_left_grid_pin_36_[0] I *C 29.210 93.840
top_left_grid_pin_37_[0] I *C 31.740 102.680
top_left_grid_pin_38_[0] I *C 29.210 97.920
top_left_grid_pin_39_[0] I *C 29.210 96.560
top_left_grid_pin_40_[0] I *C 29.210 95.200
top_left_grid_pin_41_[0] I *C 29.210 90.440
top_right_grid_pin_1_[0] I *C 110.860 102.680
chanx_left_in[0] I *C 0.690 51.680
chanx_left_in[1] I *C 0.690 54.400
chanx_left_in[2] I *C 0.690 57.120
chanx_left_in[3] I *C 0.690 53.040
chanx_left_in[4] I *C 0.690 62.560
chanx_left_in[5] I *C 0.690 50.320
chanx_left_in[6] I *C 0.690 47.600
chanx_left_in[7] I *C 0.690 70.720
chanx_left_in[8] I *C 0.690 32.640
chanx_left_in[9] I *C 0.690 72.080
chanx_left_in[10] I *C 0.690 67.320
chanx_left_in[11] I *C 0.690 69.360
chanx_left_in[12] I *C 0.690 36.720
chanx_left_in[13] I *C 0.690 44.880
chanx_left_in[14] I *C 0.690 6.800
chanx_left_in[15] I *C 0.690 42.160
chanx_left_in[16] I *C 0.690 28.560
chanx_left_in[17] I *C 0.690 19.040
chanx_left_in[18] I *C 0.690 5.440
chanx_left_in[19] I *C 0.690 4.080
left_top_grid_pin_42_[0] I *C 7.360 75.480
left_top_grid_pin_43_[0] I *C 29.210 91.800
left_top_grid_pin_44_[0] I *C 4.140 75.480
left_top_grid_pin_45_[0] I *C 5.060 75.480
left_top_grid_pin_46_[0] I *C 2.300 75.480
left_top_grid_pin_47_[0] I *C 3.220 75.480
left_top_grid_pin_48_[0] I *C 11.500 75.480
left_top_grid_pin_49_[0] I *C 10.580 75.480
left_bottom_grid_pin_1_[0] I *C 2.300 0.680
ccff_head[0] I *C 108.100 102.680
chany_top_out[0] O *C 76.820 102.680
chany_top_out[1] O *C 61.180 102.680
chany_top_out[2] O *C 77.740 102.680
chany_top_out[3] O *C 71.300 102.680
chany_top_out[4] O *C 98.900 102.680
chany_top_out[5] O *C 83.720 102.680
chany_top_out[6] O *C 70.380 102.680
chany_top_out[7] O *C 50.140 102.680
chany_top_out[8] O *C 68.540 102.680
chany_top_out[9] O *C 58.420 102.680
chany_top_out[10] O *C 96.600 102.680
chany_top_out[11] O *C 93.840 102.680
chany_top_out[12] O *C 79.580 102.680
chany_top_out[13] O *C 64.400 102.680
chany_top_out[14] O *C 97.520 102.680
chany_top_out[15] O *C 51.060 102.680
chany_top_out[16] O *C 86.940 102.680
chany_top_out[17] O *C 62.100 102.680
chany_top_out[18] O *C 95.680 102.680
chany_top_out[19] O *C 78.660 102.680
chanx_left_out[0] O *C 0.690 27.200
chanx_left_out[1] O *C 0.690 64.600
chanx_left_out[2] O *C 0.690 15.640
chanx_left_out[3] O *C 0.690 59.840
chanx_left_out[4] O *C 0.690 11.560
chanx_left_out[5] O *C 0.690 61.200
chanx_left_out[6] O *C 0.690 25.840
chanx_left_out[7] O *C 0.690 48.960
chanx_left_out[8] O *C 0.690 21.760
chanx_left_out[9] O *C 0.690 34.000
chanx_left_out[10] O *C 0.690 20.400
chanx_left_out[11] O *C 0.690 38.080
chanx_left_out[12] O *C 0.690 23.120
chanx_left_out[13] O *C 0.690 65.960
chanx_left_out[14] O *C 0.690 17.680
chanx_left_out[15] O *C 0.690 39.440
chanx_left_out[16] O *C 0.690 31.280
chanx_left_out[17] O *C 0.690 43.520
chanx_left_out[18] O *C 0.690 10.200
chanx_left_out[19] O *C 0.690 58.480
ccff_tail[0] O *C 0.690 55.760
VDD I *C 56.580 51.680
VSS I *C 56.580 51.680

*D_NET chany_top_in[1] 0.01047349 //LENGTH 79.400 LUMPCC 0.00185306 DR

*CONN
*P chany_top_in[1] I *L 0.29796 *C 57.500 102.070
*I BUFT_P_82:A I *L 0.001776 *C 26.680 58.480
*N chany_top_in[1]:2 *C 26.643 58.480
*N chany_top_in[1]:3 *C 26.265 58.480
*N chany_top_in[1]:4 *C 26.220 58.525
*N chany_top_in[1]:5 *C 26.220 74.415
*N chany_top_in[1]:6 *C 26.265 74.460
*N chany_top_in[1]:7 *C 37.225 74.460
*N chany_top_in[1]:8 *C 37.260 74.800
*N chany_top_in[1]:9 *C 37.260 74.845
*N chany_top_in[1]:10 *C 37.260 75.422
*N chany_top_in[1]:11 *C 37.267 75.480
*N chany_top_in[1]:12 *C 56.573 75.480
*N chany_top_in[1]:13 *C 56.580 75.480
*N chany_top_in[1]:14 *C 56.580 75.140
*N chany_top_in[1]:15 *C 56.625 75.140
*N chany_top_in[1]:16 *C 57.915 75.140
*N chany_top_in[1]:17 *C 57.960 75.185
*N chany_top_in[1]:18 *C 57.960 86.360
*N chany_top_in[1]:19 *C 57.500 86.360

*CAP
0 chany_top_in[1] 0.0008906535
1 BUFT_P_82:A 1e-06
2 chany_top_in[1]:2 5.282744e-05
3 chany_top_in[1]:3 5.282744e-05
4 chany_top_in[1]:4 0.0009036423
5 chany_top_in[1]:5 0.0009036423
6 chany_top_in[1]:6 0.0005254194
7 chany_top_in[1]:7 0.0005585232
8 chany_top_in[1]:8 7.026095e-05
9 chany_top_in[1]:9 5.040898e-05
10 chany_top_in[1]:10 5.040898e-05
11 chany_top_in[1]:11 0.001057977
12 chany_top_in[1]:12 0.001057977
13 chany_top_in[1]:13 5.432197e-05
14 chany_top_in[1]:14 4.994186e-05
15 chany_top_in[1]:15 0.0001144023
16 chany_top_in[1]:16 0.0001144023
17 chany_top_in[1]:17 0.0005792017
18 chany_top_in[1]:18 0.0006105707
19 chany_top_in[1]:19 0.0009220224
20 chany_top_in[1]:6 chanx_left_in[9]:8 5.557325e-06
21 chany_top_in[1]:11 chanx_left_in[9]:8 0.0002870231
22 chany_top_in[1]:11 chanx_left_in[9]:7 0.0001081592
23 chany_top_in[1]:12 chanx_left_in[9]:6 0.0001081592
24 chany_top_in[1]:12 chanx_left_in[9]:7 0.0002870231
25 chany_top_in[1]:7 chanx_left_in[9]:7 5.557325e-06
26 chany_top_in[1]:6 mux_tree_tapbuf_size2_15_sram[0]:12 0.0003552328
27 chany_top_in[1]:9 mux_tree_tapbuf_size2_15_sram[0]:15 2.032925e-06
28 chany_top_in[1]:10 mux_tree_tapbuf_size2_15_sram[0]:14 2.032925e-06
29 chany_top_in[1]:7 mux_tree_tapbuf_size2_15_sram[0]:13 0.0003552328
30 chany_top_in[1]:4 mux_left_track_7/sky130_fd_sc_hd__mux2_1_2_X[0]:7 6.063452e-05
31 chany_top_in[1]:5 mux_left_track_7/sky130_fd_sc_hd__mux2_1_2_X[0]:8 6.063452e-05
32 chany_top_in[1]:13 mux_top_track_34/sky130_fd_sc_hd__mux2_1_0_X[0]:5 1.0009e-05
33 chany_top_in[1]:14 mux_top_track_34/sky130_fd_sc_hd__mux2_1_0_X[0]:4 1.0009e-05
34 chany_top_in[1]:17 mux_top_track_34/sky130_fd_sc_hd__mux2_1_0_X[0]:5 9.788094e-05
35 chany_top_in[1]:18 mux_top_track_34/sky130_fd_sc_hd__mux2_1_0_X[0]:4 9.788094e-05

*RES
0 chany_top_in[1] chany_top_in[1]:19 0.01402679
1 chany_top_in[1]:2 BUFT_P_82:A 0.152
2 chany_top_in[1]:3 chany_top_in[1]:2 0.0003370536
3 chany_top_in[1]:4 chany_top_in[1]:3 0.0045
4 chany_top_in[1]:6 chany_top_in[1]:5 0.0045
5 chany_top_in[1]:5 chany_top_in[1]:4 0.0141875
6 chany_top_in[1]:8 chany_top_in[1]:7 0.0002297298
7 chany_top_in[1]:9 chany_top_in[1]:8 0.0045
8 chany_top_in[1]:10 chany_top_in[1]:9 0.000515625
9 chany_top_in[1]:11 chany_top_in[1]:10 0.00341
10 chany_top_in[1]:13 chany_top_in[1]:12 0.00341
11 chany_top_in[1]:12 chany_top_in[1]:11 0.00302445
12 chany_top_in[1]:15 chany_top_in[1]:14 0.0045
13 chany_top_in[1]:14 chany_top_in[1]:13 0.0001634615
14 chany_top_in[1]:16 chany_top_in[1]:15 0.001151786
15 chany_top_in[1]:17 chany_top_in[1]:16 0.0045
16 chany_top_in[1]:7 chany_top_in[1]:6 0.009785715
17 chany_top_in[1]:19 chany_top_in[1]:18 0.0004107143
18 chany_top_in[1]:18 chany_top_in[1]:17 0.00997768

*END

*D_NET top_left_grid_pin_39_[0] 0.01040661 //LENGTH 67.245 LUMPCC 0.004045011 DR

*CONN
*P top_left_grid_pin_39_[0] I *L 0.29796 *C 29.750 96.560
*I mux_top_track_18\/mux_l1_in_0_:A1 I *L 0.00198 *C 52.900 83.300
*I mux_top_track_34\/mux_l1_in_0_:A1 I *L 0.00198 *C 54.740 72.420
*I mux_top_track_6\/mux_l1_in_1_:A1 I *L 0.00198 *C 57.600 63.580
*I mux_top_track_2\/mux_l1_in_1_:A1 I *L 0.00198 *C 61.085 63.580
*N top_left_grid_pin_39_[0]:5 *C 61.047 63.580
*N top_left_grid_pin_39_[0]:6 *C 57.600 63.580
*N top_left_grid_pin_39_[0]:7 *C 54.785 63.580
*N top_left_grid_pin_39_[0]:8 *C 54.740 63.625
*N top_left_grid_pin_39_[0]:9 *C 54.740 72.375
*N top_left_grid_pin_39_[0]:10 *C 54.703 72.420
*N top_left_grid_pin_39_[0]:11 *C 53.405 72.420
*N top_left_grid_pin_39_[0]:12 *C 53.360 72.465
*N top_left_grid_pin_39_[0]:13 *C 52.938 83.300
*N top_left_grid_pin_39_[0]:14 *C 53.315 83.300
*N top_left_grid_pin_39_[0]:15 *C 53.360 83.300
*N top_left_grid_pin_39_[0]:16 *C 53.360 85.623
*N top_left_grid_pin_39_[0]:17 *C 53.352 85.680
*N top_left_grid_pin_39_[0]:18 *C 32.220 85.680
*N top_left_grid_pin_39_[0]:19 *C 32.200 85.688
*N top_left_grid_pin_39_[0]:20 *C 32.200 96.553
*N top_left_grid_pin_39_[0]:21 *C 32.180 96.560

*CAP
0 top_left_grid_pin_39_[0] 0.0001963777
1 mux_top_track_18\/mux_l1_in_0_:A1 1e-06
2 mux_top_track_34\/mux_l1_in_0_:A1 1e-06
3 mux_top_track_6\/mux_l1_in_1_:A1 1e-06
4 mux_top_track_2\/mux_l1_in_1_:A1 1e-06
5 top_left_grid_pin_39_[0]:5 0.0002011915
6 top_left_grid_pin_39_[0]:6 0.0003910951
7 top_left_grid_pin_39_[0]:7 0.0001621741
8 top_left_grid_pin_39_[0]:8 0.0004434919
9 top_left_grid_pin_39_[0]:9 0.0004434919
10 top_left_grid_pin_39_[0]:10 0.0001121961
11 top_left_grid_pin_39_[0]:11 0.0001121961
12 top_left_grid_pin_39_[0]:12 0.0004150189
13 top_left_grid_pin_39_[0]:13 4.907096e-05
14 top_left_grid_pin_39_[0]:14 4.907096e-05
15 top_left_grid_pin_39_[0]:15 0.0005520927
16 top_left_grid_pin_39_[0]:16 0.0001034551
17 top_left_grid_pin_39_[0]:17 0.0008437623
18 top_left_grid_pin_39_[0]:18 0.0008437623
19 top_left_grid_pin_39_[0]:19 0.0006213847
20 top_left_grid_pin_39_[0]:20 0.0006213847
21 top_left_grid_pin_39_[0]:21 0.0001963777
22 top_left_grid_pin_39_[0]:17 chany_top_in[19]:11 0.0009042483
23 top_left_grid_pin_39_[0]:18 chany_top_in[19]:10 0.0009042483
24 top_left_grid_pin_39_[0]:15 top_left_grid_pin_35_[0]:14 6.496724e-05
25 top_left_grid_pin_39_[0]:15 top_left_grid_pin_35_[0]:15 0.0002853798
26 top_left_grid_pin_39_[0]:12 top_left_grid_pin_35_[0]:14 0.0002853798
27 top_left_grid_pin_39_[0]:9 top_left_grid_pin_35_[0]:15 2.932254e-05
28 top_left_grid_pin_39_[0]:8 top_left_grid_pin_35_[0]:14 2.932254e-05
29 top_left_grid_pin_39_[0]:16 top_left_grid_pin_35_[0]:15 6.496724e-05
30 top_left_grid_pin_39_[0]:17 chanx_left_in[8]:7 0.0005663444
31 top_left_grid_pin_39_[0]:18 chanx_left_in[8]:8 0.0005663444
32 top_left_grid_pin_39_[0]:6 mux_top_track_2/sky130_fd_sc_hd__mux2_1_1_X[0]:2 1.331087e-07
33 top_left_grid_pin_39_[0]:6 mux_top_track_2/sky130_fd_sc_hd__mux2_1_1_X[0]:6 3.499217e-05
34 top_left_grid_pin_39_[0]:5 mux_top_track_2/sky130_fd_sc_hd__mux2_1_1_X[0]:3 1.331087e-07
35 top_left_grid_pin_39_[0]:5 mux_top_track_2/sky130_fd_sc_hd__mux2_1_1_X[0]:7 3.499217e-05
36 top_left_grid_pin_39_[0]:7 mux_top_track_6/sky130_fd_sc_hd__mux2_1_1_X[0]:6 8.903932e-05
37 top_left_grid_pin_39_[0]:6 mux_top_track_6/sky130_fd_sc_hd__mux2_1_1_X[0]:6 4.807903e-05
38 top_left_grid_pin_39_[0]:6 mux_top_track_6/sky130_fd_sc_hd__mux2_1_1_X[0]:7 8.903932e-05
39 top_left_grid_pin_39_[0]:5 mux_top_track_6/sky130_fd_sc_hd__mux2_1_1_X[0]:7 4.807903e-05

*RES
0 top_left_grid_pin_39_[0] top_left_grid_pin_39_[0]:21 0.0003807
1 top_left_grid_pin_39_[0]:13 mux_top_track_18\/mux_l1_in_0_:A1 0.152
2 top_left_grid_pin_39_[0]:14 top_left_grid_pin_39_[0]:13 0.0003370536
3 top_left_grid_pin_39_[0]:15 top_left_grid_pin_39_[0]:14 0.0045
4 top_left_grid_pin_39_[0]:15 top_left_grid_pin_39_[0]:12 0.009674108
5 top_left_grid_pin_39_[0]:10 mux_top_track_34\/mux_l1_in_0_:A1 0.152
6 top_left_grid_pin_39_[0]:10 top_left_grid_pin_39_[0]:9 0.0045
7 top_left_grid_pin_39_[0]:11 top_left_grid_pin_39_[0]:10 0.001158482
8 top_left_grid_pin_39_[0]:12 top_left_grid_pin_39_[0]:11 0.0045
9 top_left_grid_pin_39_[0]:9 top_left_grid_pin_39_[0]:8 0.0078125
10 top_left_grid_pin_39_[0]:7 top_left_grid_pin_39_[0]:6 0.002513393
11 top_left_grid_pin_39_[0]:8 top_left_grid_pin_39_[0]:7 0.0045
12 top_left_grid_pin_39_[0]:16 top_left_grid_pin_39_[0]:15 0.002073661
13 top_left_grid_pin_39_[0]:17 top_left_grid_pin_39_[0]:16 0.00341
14 top_left_grid_pin_39_[0]:18 top_left_grid_pin_39_[0]:17 0.003310758
15 top_left_grid_pin_39_[0]:19 top_left_grid_pin_39_[0]:18 0.00341
16 top_left_grid_pin_39_[0]:21 top_left_grid_pin_39_[0]:20 0.00341
17 top_left_grid_pin_39_[0]:20 top_left_grid_pin_39_[0]:19 0.001702183
18 top_left_grid_pin_39_[0]:6 mux_top_track_6\/mux_l1_in_1_:A1 0.152
19 top_left_grid_pin_39_[0]:6 top_left_grid_pin_39_[0]:5 0.003078125
20 top_left_grid_pin_39_[0]:5 mux_top_track_2\/mux_l1_in_1_:A1 0.152

*END

*D_NET left_top_grid_pin_44_[0] 0.008013859 //LENGTH 50.715 LUMPCC 0.003170216 DR

*CONN
*P left_top_grid_pin_44_[0] I *L 0.29796 *C 4.140 74.835
*I mux_left_track_1\/mux_l1_in_1_:A1 I *L 0.00198 *C 13.440 50.660
*I mux_left_track_5\/mux_l1_in_1_:A1 I *L 0.00198 *C 22.180 50.660
*I mux_left_track_13\/mux_l1_in_0_:A0 I *L 0.001631 *C 18.690 71.740
*N left_top_grid_pin_44_[0]:4 *C 18.690 71.740
*N left_top_grid_pin_44_[0]:5 *C 18.400 71.740
*N left_top_grid_pin_44_[0]:6 *C 18.370 71.710
*N left_top_grid_pin_44_[0]:7 *C 18.355 71.400
*N left_top_grid_pin_44_[0]:8 *C 22.143 50.660
*N left_top_grid_pin_44_[0]:9 *C 13.478 50.660
*N left_top_grid_pin_44_[0]:10 *C 14.720 50.660
*N left_top_grid_pin_44_[0]:11 *C 14.720 50.320
*N left_top_grid_pin_44_[0]:12 *C 17.940 50.320
*N left_top_grid_pin_44_[0]:13 *C 17.940 50.660
*N left_top_grid_pin_44_[0]:14 *C 17.940 50.705
*N left_top_grid_pin_44_[0]:15 *C 17.940 71.400
*N left_top_grid_pin_44_[0]:16 *C 17.940 72.703
*N left_top_grid_pin_44_[0]:17 *C 17.933 72.760
*N left_top_grid_pin_44_[0]:18 *C 4.147 72.760
*N left_top_grid_pin_44_[0]:19 *C 4.140 72.818

*CAP
0 left_top_grid_pin_44_[0] 9.638887e-05
1 mux_left_track_1\/mux_l1_in_1_:A1 1e-06
2 mux_left_track_5\/mux_l1_in_1_:A1 1e-06
3 mux_left_track_13\/mux_l1_in_0_:A0 1e-06
4 left_top_grid_pin_44_[0]:4 6.23718e-05
5 left_top_grid_pin_44_[0]:5 6.184971e-05
6 left_top_grid_pin_44_[0]:6 3.785137e-05
7 left_top_grid_pin_44_[0]:7 6.774694e-05
8 left_top_grid_pin_44_[0]:8 0.0003498928
9 left_top_grid_pin_44_[0]:9 0.0001380531
10 left_top_grid_pin_44_[0]:10 0.0001641731
11 left_top_grid_pin_44_[0]:11 0.0002641552
12 left_top_grid_pin_44_[0]:12 0.0002666168
13 left_top_grid_pin_44_[0]:13 0.0003784744
14 left_top_grid_pin_44_[0]:14 0.001054411
15 left_top_grid_pin_44_[0]:15 0.001155425
16 left_top_grid_pin_44_[0]:16 7.111877e-05
17 left_top_grid_pin_44_[0]:17 0.0002878624
18 left_top_grid_pin_44_[0]:18 0.0002878624
19 left_top_grid_pin_44_[0]:19 9.638887e-05
20 left_top_grid_pin_44_[0]:17 prog_clk[0]:462 0.000370332
21 left_top_grid_pin_44_[0]:17 prog_clk[0]:463 0.0002469412
22 left_top_grid_pin_44_[0]:18 prog_clk[0]:402 0.000370332
23 left_top_grid_pin_44_[0]:18 prog_clk[0]:462 0.0002469412
24 left_top_grid_pin_44_[0]:14 prog_clk[0]:438 3.162678e-06
25 left_top_grid_pin_44_[0]:15 prog_clk[0]:439 3.162678e-06
26 left_top_grid_pin_44_[0] left_top_grid_pin_47_[0] 2.32698e-05
27 left_top_grid_pin_44_[0]:17 left_top_grid_pin_47_[0]:22 0.0007953587
28 left_top_grid_pin_44_[0]:19 left_top_grid_pin_47_[0]:24 2.32698e-05
29 left_top_grid_pin_44_[0]:18 left_top_grid_pin_47_[0]:23 0.0007953587
30 left_top_grid_pin_44_[0]:14 mux_left_track_3/sky130_fd_sc_hd__mux2_1_4_X[0]:6 0.0001460437
31 left_top_grid_pin_44_[0]:15 mux_left_track_3/sky130_fd_sc_hd__mux2_1_4_X[0]:5 0.0001460437

*RES
0 left_top_grid_pin_44_[0] left_top_grid_pin_44_[0]:19 0.001801339
1 left_top_grid_pin_44_[0]:5 left_top_grid_pin_44_[0]:4 0.0001576087
2 left_top_grid_pin_44_[0]:6 left_top_grid_pin_44_[0]:5 0.0045
3 left_top_grid_pin_44_[0]:4 mux_left_track_13\/mux_l1_in_0_:A0 0.152
4 left_top_grid_pin_44_[0]:8 mux_left_track_5\/mux_l1_in_1_:A1 0.152
5 left_top_grid_pin_44_[0]:9 mux_left_track_1\/mux_l1_in_1_:A1 0.152
6 left_top_grid_pin_44_[0]:16 left_top_grid_pin_44_[0]:15 0.001162946
7 left_top_grid_pin_44_[0]:17 left_top_grid_pin_44_[0]:16 0.00341
8 left_top_grid_pin_44_[0]:19 left_top_grid_pin_44_[0]:18 0.00341
9 left_top_grid_pin_44_[0]:18 left_top_grid_pin_44_[0]:17 0.00215965
10 left_top_grid_pin_44_[0]:13 left_top_grid_pin_44_[0]:12 0.0003035715
11 left_top_grid_pin_44_[0]:13 left_top_grid_pin_44_[0]:8 0.003752232
12 left_top_grid_pin_44_[0]:14 left_top_grid_pin_44_[0]:13 0.0045
13 left_top_grid_pin_44_[0]:10 left_top_grid_pin_44_[0]:9 0.001109375
14 left_top_grid_pin_44_[0]:11 left_top_grid_pin_44_[0]:10 0.0003035715
15 left_top_grid_pin_44_[0]:12 left_top_grid_pin_44_[0]:11 0.002875
16 left_top_grid_pin_44_[0]:15 left_top_grid_pin_44_[0]:14 0.01847768
17 left_top_grid_pin_44_[0]:15 left_top_grid_pin_44_[0]:7 0.0003705357
18 left_top_grid_pin_44_[0]:7 left_top_grid_pin_44_[0]:6 0.00019375

*END

*D_NET chanx_left_out[2] 0.001498697 //LENGTH 13.235 LUMPCC 0 DR

*CONN
*I mux_left_track_5\/sky130_fd_sc_hd__buf_4_0_:X O *L 0 *C 8.180 20.060
*P chanx_left_out[2] O *L 0.7423 *C 1.230 15.640
*N chanx_left_out[2]:2 *C 6.893 15.640
*N chanx_left_out[2]:3 *C 6.900 15.698
*N chanx_left_out[2]:4 *C 6.900 20.355
*N chanx_left_out[2]:5 *C 6.923 20.400
*N chanx_left_out[2]:6 *C 7.305 20.378
*N chanx_left_out[2]:7 *C 7.305 20.060
*N chanx_left_out[2]:8 *C 8.143 20.060

*CAP
0 mux_left_track_5\/sky130_fd_sc_hd__buf_4_0_:X 1e-06
1 chanx_left_out[2] 0.0003503755
2 chanx_left_out[2]:2 0.0003503755
3 chanx_left_out[2]:3 0.0002654739
4 chanx_left_out[2]:4 0.0002654739
5 chanx_left_out[2]:5 4.45903e-05
6 chanx_left_out[2]:6 7.075649e-05
7 chanx_left_out[2]:7 8.840853e-05
8 chanx_left_out[2]:8 6.224234e-05

*RES
0 mux_left_track_5\/sky130_fd_sc_hd__buf_4_0_:X chanx_left_out[2]:8 0.152
1 chanx_left_out[2]:8 chanx_left_out[2]:7 0.0007477679
2 chanx_left_out[2]:5 chanx_left_out[2]:4 0.0045
3 chanx_left_out[2]:4 chanx_left_out[2]:3 0.004158482
4 chanx_left_out[2]:3 chanx_left_out[2]:2 0.00341
5 chanx_left_out[2]:2 chanx_left_out[2] 0.000887125
6 chanx_left_out[2]:6 chanx_left_out[2]:5 0.0002078805
7 chanx_left_out[2]:7 chanx_left_out[2]:6 0.0002834821

*END

*D_NET mux_tree_tapbuf_size2_15_sram[1] 0.002000138 //LENGTH 14.850 LUMPCC 0.0001572926 DR

*CONN
*I mem_left_track_13\/sky130_fd_sc_hd__dfxbp_1_1_:Q O *L 0 *C 14.105 72.080
*I mem_left_track_13\/FTB_28__33:A I *L 0.001746 *C 6.900 66.640
*I mux_left_track_13\/mux_l2_in_0_:S I *L 0.00357 *C 8.380 69.070
*N mux_tree_tapbuf_size2_15_sram[1]:3 *C 8.380 69.070
*N mux_tree_tapbuf_size2_15_sram[1]:4 *C 6.938 66.640
*N mux_tree_tapbuf_size2_15_sram[1]:5 *C 8.235 66.640
*N mux_tree_tapbuf_size2_15_sram[1]:6 *C 8.280 66.685
*N mux_tree_tapbuf_size2_15_sram[1]:7 *C 8.280 68.635
*N mux_tree_tapbuf_size2_15_sram[1]:8 *C 8.380 68.680
*N mux_tree_tapbuf_size2_15_sram[1]:9 *C 12.835 68.680
*N mux_tree_tapbuf_size2_15_sram[1]:10 *C 12.880 68.725
*N mux_tree_tapbuf_size2_15_sram[1]:11 *C 12.880 72.035
*N mux_tree_tapbuf_size2_15_sram[1]:12 *C 12.925 72.080
*N mux_tree_tapbuf_size2_15_sram[1]:13 *C 14.068 72.080

*CAP
0 mem_left_track_13\/sky130_fd_sc_hd__dfxbp_1_1_:Q 1e-06
1 mem_left_track_13\/FTB_28__33:A 1e-06
2 mux_left_track_13\/mux_l2_in_0_:S 1e-06
3 mux_tree_tapbuf_size2_15_sram[1]:3 5.895516e-05
4 mux_tree_tapbuf_size2_15_sram[1]:4 8.839598e-05
5 mux_tree_tapbuf_size2_15_sram[1]:5 8.839598e-05
6 mux_tree_tapbuf_size2_15_sram[1]:6 0.0001260042
7 mux_tree_tapbuf_size2_15_sram[1]:7 0.0001260042
8 mux_tree_tapbuf_size2_15_sram[1]:8 0.0003160331
9 mux_tree_tapbuf_size2_15_sram[1]:9 0.0002845116
10 mux_tree_tapbuf_size2_15_sram[1]:10 0.0002474264
11 mux_tree_tapbuf_size2_15_sram[1]:11 0.0002474264
12 mux_tree_tapbuf_size2_15_sram[1]:12 0.0001283464
13 mux_tree_tapbuf_size2_15_sram[1]:13 0.0001283464
14 mux_tree_tapbuf_size2_15_sram[1]:9 mux_left_track_13/sky130_fd_sc_hd__mux2_1_0_X[0]:5 3.208691e-05
15 mux_tree_tapbuf_size2_15_sram[1]:9 mux_left_track_13/sky130_fd_sc_hd__mux2_1_0_X[0]:3 4.447194e-05
16 mux_tree_tapbuf_size2_15_sram[1]:10 mux_left_track_13/sky130_fd_sc_hd__mux2_1_0_X[0]:6 1.237676e-06
17 mux_tree_tapbuf_size2_15_sram[1]:11 mux_left_track_13/sky130_fd_sc_hd__mux2_1_0_X[0]:7 1.237676e-06
18 mux_tree_tapbuf_size2_15_sram[1]:3 mux_left_track_13/sky130_fd_sc_hd__mux2_1_0_X[0]:4 8.497647e-07
19 mux_tree_tapbuf_size2_15_sram[1]:8 mux_left_track_13/sky130_fd_sc_hd__mux2_1_0_X[0]:2 4.447194e-05
20 mux_tree_tapbuf_size2_15_sram[1]:8 mux_left_track_13/sky130_fd_sc_hd__mux2_1_0_X[0]:3 8.497647e-07
21 mux_tree_tapbuf_size2_15_sram[1]:8 mux_left_track_13/sky130_fd_sc_hd__mux2_1_0_X[0]:4 3.208691e-05

*RES
0 mem_left_track_13\/sky130_fd_sc_hd__dfxbp_1_1_:Q mux_tree_tapbuf_size2_15_sram[1]:13 0.152
1 mux_tree_tapbuf_size2_15_sram[1]:9 mux_tree_tapbuf_size2_15_sram[1]:8 0.003977679
2 mux_tree_tapbuf_size2_15_sram[1]:10 mux_tree_tapbuf_size2_15_sram[1]:9 0.0045
3 mux_tree_tapbuf_size2_15_sram[1]:12 mux_tree_tapbuf_size2_15_sram[1]:11 0.0045
4 mux_tree_tapbuf_size2_15_sram[1]:11 mux_tree_tapbuf_size2_15_sram[1]:10 0.002955357
5 mux_tree_tapbuf_size2_15_sram[1]:13 mux_tree_tapbuf_size2_15_sram[1]:12 0.001020089
6 mux_tree_tapbuf_size2_15_sram[1]:3 mux_left_track_13\/mux_l2_in_0_:S 0.152
7 mux_tree_tapbuf_size2_15_sram[1]:8 mux_tree_tapbuf_size2_15_sram[1]:7 0.0045
8 mux_tree_tapbuf_size2_15_sram[1]:8 mux_tree_tapbuf_size2_15_sram[1]:3 0.0003482143
9 mux_tree_tapbuf_size2_15_sram[1]:7 mux_tree_tapbuf_size2_15_sram[1]:6 0.001741071
10 mux_tree_tapbuf_size2_15_sram[1]:5 mux_tree_tapbuf_size2_15_sram[1]:4 0.001158482
11 mux_tree_tapbuf_size2_15_sram[1]:6 mux_tree_tapbuf_size2_15_sram[1]:5 0.0045
12 mux_tree_tapbuf_size2_15_sram[1]:4 mem_left_track_13\/FTB_28__33:A 0.152

*END

*D_NET mux_tree_tapbuf_size2_3_sram[0] 0.002446594 //LENGTH 21.385 LUMPCC 0.0001026214 DR

*CONN
*I mem_top_track_16\/sky130_fd_sc_hd__dfxbp_1_0_:Q O *L 0 *C 52.285 58.480
*I mux_top_track_16\/mux_l1_in_0_:S I *L 0.00357 *C 46.360 72.005
*I mem_top_track_16\/sky130_fd_sc_hd__dfxbp_1_1_:D I *L 0.001695 *C 48.015 66.300
*N mux_tree_tapbuf_size2_3_sram[0]:3 *C 48.015 66.300
*N mux_tree_tapbuf_size2_3_sram[0]:4 *C 46.398 72.065
*N mux_tree_tapbuf_size2_3_sram[0]:5 *C 48.255 72.080
*N mux_tree_tapbuf_size2_3_sram[0]:6 *C 48.300 72.035
*N mux_tree_tapbuf_size2_3_sram[0]:7 *C 48.300 66.345
*N mux_tree_tapbuf_size2_3_sram[0]:8 *C 48.345 66.300
*N mux_tree_tapbuf_size2_3_sram[0]:9 *C 51.015 66.300
*N mux_tree_tapbuf_size2_3_sram[0]:10 *C 51.060 66.255
*N mux_tree_tapbuf_size2_3_sram[0]:11 *C 51.060 58.525
*N mux_tree_tapbuf_size2_3_sram[0]:12 *C 51.105 58.480
*N mux_tree_tapbuf_size2_3_sram[0]:13 *C 52.248 58.480

*CAP
0 mem_top_track_16\/sky130_fd_sc_hd__dfxbp_1_0_:Q 1e-06
1 mux_top_track_16\/mux_l1_in_0_:S 1e-06
2 mem_top_track_16\/sky130_fd_sc_hd__dfxbp_1_1_:D 1e-06
3 mux_tree_tapbuf_size2_3_sram[0]:3 4.908738e-05
4 mux_tree_tapbuf_size2_3_sram[0]:4 0.0001400889
5 mux_tree_tapbuf_size2_3_sram[0]:5 0.0001400889
6 mux_tree_tapbuf_size2_3_sram[0]:6 0.0002829696
7 mux_tree_tapbuf_size2_3_sram[0]:7 0.0002829696
8 mux_tree_tapbuf_size2_3_sram[0]:8 0.000215672
9 mux_tree_tapbuf_size2_3_sram[0]:9 0.0001940495
10 mux_tree_tapbuf_size2_3_sram[0]:10 0.0004336654
11 mux_tree_tapbuf_size2_3_sram[0]:11 0.0004336654
12 mux_tree_tapbuf_size2_3_sram[0]:12 8.435814e-05
13 mux_tree_tapbuf_size2_3_sram[0]:13 8.435814e-05
14 mux_tree_tapbuf_size2_3_sram[0]:4 mux_top_track_16/sky130_fd_sc_hd__mux2_1_0_X[0]:7 1.385068e-05
15 mux_tree_tapbuf_size2_3_sram[0]:5 mux_top_track_16/sky130_fd_sc_hd__mux2_1_0_X[0]:6 1.385068e-05
16 mux_tree_tapbuf_size2_3_sram[0]:6 mux_top_track_16/sky130_fd_sc_hd__mux2_1_0_X[0]:5 3.739079e-05
17 mux_tree_tapbuf_size2_3_sram[0]:8 mux_top_track_16/sky130_fd_sc_hd__mux2_1_0_X[0]:2 1.511224e-08
18 mux_tree_tapbuf_size2_3_sram[0]:8 mux_top_track_16/sky130_fd_sc_hd__mux2_1_0_X[0]:3 5.410455e-08
19 mux_tree_tapbuf_size2_3_sram[0]:7 mux_top_track_16/sky130_fd_sc_hd__mux2_1_0_X[0]:4 3.739079e-05
20 mux_tree_tapbuf_size2_3_sram[0]:9 mux_top_track_16/sky130_fd_sc_hd__mux2_1_0_X[0]:2 5.410455e-08
21 mux_tree_tapbuf_size2_3_sram[0]:3 mux_top_track_16/sky130_fd_sc_hd__mux2_1_0_X[0]:3 1.511224e-08

*RES
0 mem_top_track_16\/sky130_fd_sc_hd__dfxbp_1_0_:Q mux_tree_tapbuf_size2_3_sram[0]:13 0.152
1 mux_tree_tapbuf_size2_3_sram[0]:4 mux_top_track_16\/mux_l1_in_0_:S 0.152
2 mux_tree_tapbuf_size2_3_sram[0]:5 mux_tree_tapbuf_size2_3_sram[0]:4 0.001658482
3 mux_tree_tapbuf_size2_3_sram[0]:6 mux_tree_tapbuf_size2_3_sram[0]:5 0.0045
4 mux_tree_tapbuf_size2_3_sram[0]:8 mux_tree_tapbuf_size2_3_sram[0]:7 0.0045
5 mux_tree_tapbuf_size2_3_sram[0]:8 mux_tree_tapbuf_size2_3_sram[0]:3 0.0001793478
6 mux_tree_tapbuf_size2_3_sram[0]:7 mux_tree_tapbuf_size2_3_sram[0]:6 0.005080358
7 mux_tree_tapbuf_size2_3_sram[0]:9 mux_tree_tapbuf_size2_3_sram[0]:8 0.002383929
8 mux_tree_tapbuf_size2_3_sram[0]:10 mux_tree_tapbuf_size2_3_sram[0]:9 0.0045
9 mux_tree_tapbuf_size2_3_sram[0]:12 mux_tree_tapbuf_size2_3_sram[0]:11 0.0045
10 mux_tree_tapbuf_size2_3_sram[0]:11 mux_tree_tapbuf_size2_3_sram[0]:10 0.006901787
11 mux_tree_tapbuf_size2_3_sram[0]:13 mux_tree_tapbuf_size2_3_sram[0]:12 0.001020089
12 mux_tree_tapbuf_size2_3_sram[0]:3 mem_top_track_16\/sky130_fd_sc_hd__dfxbp_1_1_:D 0.152

*END

*D_NET mux_tree_tapbuf_size2_mem_15_ccff_tail[0] 0.002051211 //LENGTH 15.510 LUMPCC 0.0007428277 DR

*CONN
*I mem_left_track_13\/FTB_28__33:X O *L 0 *C 3.905 66.300
*I mem_left_track_15\/sky130_fd_sc_hd__dfxbp_1_0_:D I *L 0.001695 *C 8.915 60.860
*N mux_tree_tapbuf_size2_mem_15_ccff_tail[0]:2 *C 8.878 60.860
*N mux_tree_tapbuf_size2_mem_15_ccff_tail[0]:3 *C 1.885 60.860
*N mux_tree_tapbuf_size2_mem_15_ccff_tail[0]:4 *C 1.840 60.905
*N mux_tree_tapbuf_size2_mem_15_ccff_tail[0]:5 *C 1.840 66.255
*N mux_tree_tapbuf_size2_mem_15_ccff_tail[0]:6 *C 1.885 66.300
*N mux_tree_tapbuf_size2_mem_15_ccff_tail[0]:7 *C 3.868 66.300

*CAP
0 mem_left_track_13\/FTB_28__33:X 1e-06
1 mem_left_track_15\/sky130_fd_sc_hd__dfxbp_1_0_:D 1e-06
2 mux_tree_tapbuf_size2_mem_15_ccff_tail[0]:2 0.0003798926
3 mux_tree_tapbuf_size2_mem_15_ccff_tail[0]:3 0.0003798926
4 mux_tree_tapbuf_size2_mem_15_ccff_tail[0]:4 0.0001411875
5 mux_tree_tapbuf_size2_mem_15_ccff_tail[0]:5 0.0001411875
6 mux_tree_tapbuf_size2_mem_15_ccff_tail[0]:6 0.0001321115
7 mux_tree_tapbuf_size2_mem_15_ccff_tail[0]:7 0.0001321115
8 mux_tree_tapbuf_size2_mem_15_ccff_tail[0]:5 left_top_grid_pin_46_[0] 0.0001504954
9 mux_tree_tapbuf_size2_mem_15_ccff_tail[0]:4 left_top_grid_pin_46_[0]:15 0.0001504954
10 mux_tree_tapbuf_size2_mem_15_ccff_tail[0]:5 mux_left_track_13/sky130_fd_sc_hd__mux2_1_1_X[0]:10 7.335986e-05
11 mux_tree_tapbuf_size2_mem_15_ccff_tail[0]:4 mux_left_track_13/sky130_fd_sc_hd__mux2_1_1_X[0]:9 7.335986e-05
12 mux_tree_tapbuf_size2_mem_15_ccff_tail[0]:3 ropt_net_127:11 5.219894e-05
13 mux_tree_tapbuf_size2_mem_15_ccff_tail[0]:2 ropt_net_127:12 5.219894e-05
14 mux_tree_tapbuf_size2_mem_15_ccff_tail[0]:5 ropt_net_118:4 1.920949e-08
15 mux_tree_tapbuf_size2_mem_15_ccff_tail[0]:3 ropt_net_118:2 9.534044e-05
16 mux_tree_tapbuf_size2_mem_15_ccff_tail[0]:4 ropt_net_118:5 1.920949e-08
17 mux_tree_tapbuf_size2_mem_15_ccff_tail[0]:2 ropt_net_118:3 9.534044e-05

*RES
0 mem_left_track_13\/FTB_28__33:X mux_tree_tapbuf_size2_mem_15_ccff_tail[0]:7 0.152
1 mux_tree_tapbuf_size2_mem_15_ccff_tail[0]:7 mux_tree_tapbuf_size2_mem_15_ccff_tail[0]:6 0.001770089
2 mux_tree_tapbuf_size2_mem_15_ccff_tail[0]:6 mux_tree_tapbuf_size2_mem_15_ccff_tail[0]:5 0.0045
3 mux_tree_tapbuf_size2_mem_15_ccff_tail[0]:5 mux_tree_tapbuf_size2_mem_15_ccff_tail[0]:4 0.004776786
4 mux_tree_tapbuf_size2_mem_15_ccff_tail[0]:3 mux_tree_tapbuf_size2_mem_15_ccff_tail[0]:2 0.006243304
5 mux_tree_tapbuf_size2_mem_15_ccff_tail[0]:4 mux_tree_tapbuf_size2_mem_15_ccff_tail[0]:3 0.0045
6 mux_tree_tapbuf_size2_mem_15_ccff_tail[0]:2 mem_left_track_15\/sky130_fd_sc_hd__dfxbp_1_0_:D 0.152

*END

*D_NET mux_tree_tapbuf_size3_mem_1_ccff_tail[0] 0.001387367 //LENGTH 11.485 LUMPCC 0 DR

*CONN
*I mem_top_track_24\/FTB_10__15:X O *L 0 *C 70.145 94.180
*I mem_top_track_26\/sky130_fd_sc_hd__dfxbp_1_0_:D I *L 0.001695 *C 62.280 96.900
*N mux_tree_tapbuf_size3_mem_1_ccff_tail[0]:2 *C 62.280 96.900
*N mux_tree_tapbuf_size3_mem_1_ccff_tail[0]:3 *C 64.815 96.900
*N mux_tree_tapbuf_size3_mem_1_ccff_tail[0]:4 *C 64.860 96.855
*N mux_tree_tapbuf_size3_mem_1_ccff_tail[0]:5 *C 64.860 94.225
*N mux_tree_tapbuf_size3_mem_1_ccff_tail[0]:6 *C 64.905 94.180
*N mux_tree_tapbuf_size3_mem_1_ccff_tail[0]:7 *C 70.108 94.180

*CAP
0 mem_top_track_24\/FTB_10__15:X 1e-06
1 mem_top_track_26\/sky130_fd_sc_hd__dfxbp_1_0_:D 1e-06
2 mux_tree_tapbuf_size3_mem_1_ccff_tail[0]:2 0.0002139671
3 mux_tree_tapbuf_size3_mem_1_ccff_tail[0]:3 0.0001761369
4 mux_tree_tapbuf_size3_mem_1_ccff_tail[0]:4 0.0001686564
5 mux_tree_tapbuf_size3_mem_1_ccff_tail[0]:5 0.0001686564
6 mux_tree_tapbuf_size3_mem_1_ccff_tail[0]:6 0.0003289753
7 mux_tree_tapbuf_size3_mem_1_ccff_tail[0]:7 0.0003289753

*RES
0 mem_top_track_24\/FTB_10__15:X mux_tree_tapbuf_size3_mem_1_ccff_tail[0]:7 0.152
1 mux_tree_tapbuf_size3_mem_1_ccff_tail[0]:2 mem_top_track_26\/sky130_fd_sc_hd__dfxbp_1_0_:D 0.152
2 mux_tree_tapbuf_size3_mem_1_ccff_tail[0]:3 mux_tree_tapbuf_size3_mem_1_ccff_tail[0]:2 0.002263393
3 mux_tree_tapbuf_size3_mem_1_ccff_tail[0]:4 mux_tree_tapbuf_size3_mem_1_ccff_tail[0]:3 0.0045
4 mux_tree_tapbuf_size3_mem_1_ccff_tail[0]:6 mux_tree_tapbuf_size3_mem_1_ccff_tail[0]:5 0.0045
5 mux_tree_tapbuf_size3_mem_1_ccff_tail[0]:5 mux_tree_tapbuf_size3_mem_1_ccff_tail[0]:4 0.002348214
6 mux_tree_tapbuf_size3_mem_1_ccff_tail[0]:7 mux_tree_tapbuf_size3_mem_1_ccff_tail[0]:6 0.00464509

*END

*D_NET mux_tree_tapbuf_size5_mem_2_ccff_tail[0] 0.0004628618 //LENGTH 3.300 LUMPCC 7.324832e-05 DR

*CONN
*I mem_left_track_3\/FTB_7__12:X O *L 0 *C 17.245 55.080
*I mem_left_track_5\/sky130_fd_sc_hd__dfxbp_1_0_:D I *L 0.001695 *C 16.735 53.380
*N mux_tree_tapbuf_size5_mem_2_ccff_tail[0]:2 *C 16.735 53.380
*N mux_tree_tapbuf_size5_mem_2_ccff_tail[0]:3 *C 16.560 53.380
*N mux_tree_tapbuf_size5_mem_2_ccff_tail[0]:4 *C 16.560 53.425
*N mux_tree_tapbuf_size5_mem_2_ccff_tail[0]:5 *C 16.560 55.035