*SPEF "1481-1998"
*DESIGN "sb_2__1_"
*DATE "Tue Oct 27 11:35:07 2020"
*
*
*
*
*DIVIDER /
*DELIMITER :
*T_UNIT 1 NS
*C_UNIT 1 PF
*R_UNIT 1 KOHM
*L_UNIT 1 HENRY

// XY_UNIT 1 UM
// PARASITIC_TECH nominal at 25.000 degree

*PORTS
prog_clk[0] I *C 2.300 17.000
chany_top_in[0] I *C 65.780 97.240
chany_top_in[1] I *C 42.320 97.240
chany_top_in[2] I *C 56.120 97.240
chany_top_in[3] I *C 51.980 97.240
chany_top_in[4] I *C 49.680 97.240
chany_top_in[5] I *C 50.140 97.240
chany_top_in[6] I *C 55.200 97.240
chany_top_in[7] I *C 59.340 97.240
chany_top_in[8] I *C 56.120 97.240
chany_top_in[9] I *C 57.960 97.240
chany_top_in[10] I *C 53.360 97.240
chany_top_in[11] I *C 49.220 97.240
chany_top_in[12] I *C 47.840 97.240
chany_top_in[13] I *C 45.080 97.240
chany_top_in[14] I *C 54.280 97.240
chany_top_in[15] I *C 51.060 97.240
chany_top_in[16] I *C 51.520 97.240
chany_top_in[17] I *C 41.400 97.240
chany_top_in[18] I *C 39.560 97.240
chany_top_in[19] I *C 39.560 97.240
top_left_grid_pin_34_[0] I *C 21.620 97.240
top_left_grid_pin_35_[0] I *C 24.380 97.240
top_left_grid_pin_36_[0] I *C 23.000 97.240
top_left_grid_pin_37_[0] I *C 2.760 80.920
top_left_grid_pin_38_[0] I *C 20.700 97.240
top_left_grid_pin_39_[0] I *C 23.460 97.240
top_left_grid_pin_40_[0] I *C 22.540 97.240
top_left_grid_pin_41_[0] I *C 7.820 80.920
top_right_grid_pin_1_[0] I *C 80.500 97.240
chany_bottom_in[0] I *C 55.200 0.680
chany_bottom_in[1] I *C 39.560 0.680
chany_bottom_in[2] I *C 68.540 0.680
chany_bottom_in[3] I *C 59.800 0.680
chany_bottom_in[4] I *C 69.460 0.680
chany_bottom_in[5] I *C 50.140 0.680
chany_bottom_in[6] I *C 70.380 0.680
chany_bottom_in[7] I *C 60.720 0.680
chany_bottom_in[8] I *C 67.620 0.680
chany_bottom_in[9] I *C 61.640 0.680
chany_bottom_in[10] I *C 46.000 0.680
chany_bottom_in[11] I *C 58.420 0.680
chany_bottom_in[12] I *C 37.720 0.680
chany_bottom_in[13] I *C 40.480 0.680
chany_bottom_in[14] I *C 52.440 0.680
chany_bottom_in[15] I *C 48.760 0.680
chany_bottom_in[16] I *C 38.640 0.680
chany_bottom_in[17] I *C 41.400 0.680
chany_bottom_in[18] I *C 45.080 0.680
chany_bottom_in[19] I *C 72.220 0.680
bottom_right_grid_pin_1_[0] I *C 80.500 0.680
bottom_left_grid_pin_34_[0] I *C 20.700 0.680
bottom_left_grid_pin_35_[0] I *C 23.000 0.680
bottom_left_grid_pin_36_[0] I *C 23.460 0.680
bottom_left_grid_pin_37_[0] I *C 21.620 0.680
bottom_left_grid_pin_38_[0] I *C 22.540 0.680
bottom_left_grid_pin_39_[0] I *C 19.090 5.440
bottom_left_grid_pin_40_[0] I *C 19.090 6.800
bottom_left_grid_pin_41_[0] I *C 19.090 8.160
chanx_left_in[0] I *C 0.690 69.360
chanx_left_in[1] I *C 0.690 78.200
chanx_left_in[2] I *C 0.690 43.520
chanx_left_in[3] I *C 0.690 75.480
chanx_left_in[4] I *C 0.690 72.080
chanx_left_in[5] I *C 3.680 17.000
chanx_left_in[6] I *C 0.690 25.160
chanx_left_in[7] I *C 0.690 30.600
chanx_left_in[8] I *C 0.690 38.760
chanx_left_in[9] I *C 0.690 76.840
chanx_left_in[10] I *C 0.690 34.000
chanx_left_in[11] I *C 0.690 20.400
chanx_left_in[12] I *C 0.690 46.920
chanx_left_in[13] I *C 0.690 58.480
chanx_left_in[14] I *C 0.690 44.880
chanx_left_in[15] I *C 0.690 49.640
chanx_left_in[16] I *C 0.690 21.760
chanx_left_in[17] I *C 0.690 26.520
chanx_left_in[18] I *C 0.690 48.280
chanx_left_in[19] I *C 0.690 51.000
left_top_grid_pin_42_[0] I *C 24.840 97.240
left_top_grid_pin_43_[0] I *C 5.520 80.920
left_top_grid_pin_44_[0] I *C 4.600 80.920
left_top_grid_pin_45_[0] I *C 6.440 80.920
left_top_grid_pin_46_[0] I *C 3.680 80.920
left_top_grid_pin_47_[0] I *C 6.440 80.920
left_top_grid_pin_48_[0] I *C 8.740 80.920
left_top_grid_pin_49_[0] I *C 4.600 80.920
ccff_head[0] I *C 80.040 97.240
chany_top_out[0] O *C 66.700 97.240
chany_top_out[1] O *C 40.480 97.240
chany_top_out[2] O *C 64.860 97.240
chany_top_out[3] O *C 38.640 97.240
chany_top_out[4] O *C 69.460 97.240
chany_top_out[5] O *C 57.040 97.240
chany_top_out[6] O *C 68.540 97.240
chany_top_out[7] O *C 53.360 97.240
chany_top_out[8] O *C 67.620 97.240
chany_top_out[9] O *C 43.240 97.240
chany_top_out[10] O *C 70.380 97.240
chany_top_out[11] O *C 48.300 97.240
chany_top_out[12] O *C 71.300 97.240
chany_top_out[13] O *C 27.600 97.240
chany_top_out[14] O *C 60.260 97.240
chany_top_out[15] O *C 46.000 97.240
chany_top_out[16] O *C 61.180 97.240
chany_top_out[17] O *C 41.400 97.240
chany_top_out[18] O *C 37.720 97.240
chany_top_out[19] O *C 46.920 97.240
chany_bottom_out[0] O *C 56.120 0.680
chany_bottom_out[1] O *C 43.240 0.680
chany_bottom_out[2] O *C 57.500 0.680
chany_bottom_out[3] O *C 46.000 0.680
chany_bottom_out[4] O *C 66.700 0.680
chany_bottom_out[5] O *C 51.060 0.680
chany_bottom_out[6] O *C 63.020 0.680
chany_bottom_out[7] O *C 52.900 0.680
chany_bottom_out[8] O *C 65.780 0.680
chany_bottom_out[9] O *C 47.840 0.680
chany_bottom_out[10] O *C 63.940 0.680
chany_bottom_out[11] O *C 46.920 0.680
chany_bottom_out[12] O *C 57.040 0.680
chany_bottom_out[13] O *C 35.880 0.680
chany_bottom_out[14] O *C 64.860 0.680
chany_bottom_out[15] O *C 54.280 0.680
chany_bottom_out[16] O *C 71.300 0.680
chany_bottom_out[17] O *C 55.200 0.680
chany_bottom_out[18] O *C 51.980 0.680
chany_bottom_out[19] O *C 42.320 0.680
chanx_left_out[0] O *C 0.690 53.720
chanx_left_out[1] O *C 0.690 66.640
chanx_left_out[2] O *C 0.690 68.000
chanx_left_out[3] O *C 0.690 65.280
chanx_left_out[4] O *C 0.690 36.720
chanx_left_out[5] O *C 0.690 55.760
chanx_left_out[6] O *C 0.690 27.880
chanx_left_out[7] O *C 0.690 57.120
chanx_left_out[8] O *C 0.690 31.960
chanx_left_out[9] O *C 0.690 59.840
chanx_left_out[10] O *C 0.690 42.160
chanx_left_out[11] O *C 0.690 62.560
chanx_left_out[12] O *C 0.690 29.240
chanx_left_out[13] O *C 0.690 70.720
chanx_left_out[14] O *C 0.690 23.800
chanx_left_out[15] O *C 0.690 63.920
chanx_left_out[16] O *C 0.690 35.360
chanx_left_out[17] O *C 0.690 74.120
chanx_left_out[18] O *C 0.690 40.800
chanx_left_out[19] O *C 0.690 61.200
ccff_tail[0] O *C 0.690 52.360
VDD I *C 42.320 48.960
VSS I *C 42.320 48.960

*D_NET chany_top_in[2] 0.01765464 //LENGTH 118.845 LUMPCC 0.004528001 DR

*CONN
*P chany_top_in[2] I *L 0.29796 *C 56.120 96.635
*I mux_left_track_1\/mux_l1_in_0_:A0 I *L 0.001631 *C 61.815 75.480
*I mux_bottom_track_1\/mux_l1_in_0_:A1 I *L 0.00198 *C 30.725 18.020
*I BUFT_P_97:A I *L 0.001776 *C 46.920 14.960
*N chany_top_in[2]:4 *C 46.883 14.960
*N chany_top_in[2]:5 *C 46.505 14.960
*N chany_top_in[2]:6 *C 46.460 15.005
*N chany_top_in[2]:7 *C 30.763 18.020
*N chany_top_in[2]:8 *C 32.155 18.020
*N chany_top_in[2]:9 *C 32.200 18.065
*N chany_top_in[2]:10 *C 32.200 19.675
*N chany_top_in[2]:11 *C 32.245 19.720
*N chany_top_in[2]:12 *C 46.415 19.720
*N chany_top_in[2]:13 *C 46.460 19.720
*N chany_top_in[2]:14 *C 46.460 21.023
*N chany_top_in[2]:15 *C 46.468 21.080
*N chany_top_in[2]:16 *C 57.020 21.080
*N chany_top_in[2]:17 *C 57.040 21.088
*N chany_top_in[2]:18 *C 61.778 75.480
*N chany_top_in[2]:19 *C 61.225 75.480
*N chany_top_in[2]:20 *C 61.180 75.480
*N chany_top_in[2]:21 *C 61.172 75.480
*N chany_top_in[2]:22 *C 57.060 75.480
*N chany_top_in[2]:23 *C 57.040 75.480
*N chany_top_in[2]:24 *C 57.040 96.560

*CAP
0 chany_top_in[2] 5.63988e-05
1 mux_left_track_1\/mux_l1_in_0_:A0 1e-06
2 mux_bottom_track_1\/mux_l1_in_0_:A1 1e-06
3 BUFT_P_97:A 1e-06
4 chany_top_in[2]:4 5.114427e-05
5 chany_top_in[2]:5 5.114427e-05
6 chany_top_in[2]:6 0.0003407967
7 chany_top_in[2]:7 0.0001195888
8 chany_top_in[2]:8 0.0001195888
9 chany_top_in[2]:9 0.0001231502
10 chany_top_in[2]:10 0.0001231502
11 chany_top_in[2]:11 0.001019339
12 chany_top_in[2]:12 0.001019339
13 chany_top_in[2]:13 0.0004713328
14 chany_top_in[2]:14 9.59957e-05
15 chany_top_in[2]:15 0.0007249631
16 chany_top_in[2]:16 0.000724963
17 chany_top_in[2]:17 0.002327945
18 chany_top_in[2]:18 6.022311e-05
19 chany_top_in[2]:19 6.022311e-05
20 chany_top_in[2]:20 3.661668e-05
21 chany_top_in[2]:21 0.0002030584
22 chany_top_in[2]:22 0.0002030584
23 chany_top_in[2]:23 0.003731581
24 chany_top_in[2]:24 0.001460035
25 chany_top_in[2]:17 chany_bottom_in[0] 0.0006896015
26 chany_top_in[2]:23 chany_bottom_in[0]:8 0.0006896015
27 chany_top_in[2]:16 chanx_left_in[11]:16 0.0001461344
28 chany_top_in[2]:16 chanx_left_in[11]:17 0.0002597705
29 chany_top_in[2]:15 chanx_left_in[11] 0.0002597705
30 chany_top_in[2]:15 chanx_left_in[11]:17 0.0001461344
31 chany_top_in[2]:17 mux_top_track_4/sky130_fd_sc_hd__mux2_1_6_X[0]:9 0.000207404
32 chany_top_in[2]:23 mux_top_track_4/sky130_fd_sc_hd__mux2_1_6_X[0]:8 0.000207404
33 chany_top_in[2]:23 mux_top_track_4/sky130_fd_sc_hd__mux2_1_6_X[0]:9 1.613743e-06
34 chany_top_in[2]:24 mux_top_track_4/sky130_fd_sc_hd__mux2_1_6_X[0]:8 1.613743e-06
35 chany_top_in[2]:22 mux_top_track_16/sky130_fd_sc_hd__mux2_1_6_X[0]:7 0.0002343352
36 chany_top_in[2]:21 mux_top_track_16/sky130_fd_sc_hd__mux2_1_6_X[0]:6 0.0002343352
37 chany_top_in[2]:12 mux_bottom_track_25/sky130_fd_sc_hd__mux2_1_1_X[0]:6 8.385919e-05
38 chany_top_in[2]:11 mux_bottom_track_25/sky130_fd_sc_hd__mux2_1_1_X[0]:7 8.385919e-05
39 chany_top_in[2]:17 optlc_net_125:48 0.0006412823
40 chany_top_in[2]:23 optlc_net_125:49 0.0006412823

*RES
0 chany_top_in[2] chany_top_in[2]:24 0.0001441333
1 chany_top_in[2]:12 chany_top_in[2]:11 0.01265179
2 chany_top_in[2]:13 chany_top_in[2]:12 0.0045
3 chany_top_in[2]:13 chany_top_in[2]:6 0.004209822
4 chany_top_in[2]:11 chany_top_in[2]:10 0.0045
5 chany_top_in[2]:10 chany_top_in[2]:9 0.0014375
6 chany_top_in[2]:8 chany_top_in[2]:7 0.001243304
7 chany_top_in[2]:9 chany_top_in[2]:8 0.0045
8 chany_top_in[2]:7 mux_bottom_track_1\/mux_l1_in_0_:A1 0.152
9 chany_top_in[2]:16 chany_top_in[2]:15 0.001653225
10 chany_top_in[2]:17 chany_top_in[2]:16 0.00341
11 chany_top_in[2]:14 chany_top_in[2]:13 0.001162947
12 chany_top_in[2]:15 chany_top_in[2]:14 0.00341
13 chany_top_in[2]:22 chany_top_in[2]:21 0.0006442916
14 chany_top_in[2]:23 chany_top_in[2]:22 0.00341
15 chany_top_in[2]:23 chany_top_in[2]:17 0.008521491
16 chany_top_in[2]:20 chany_top_in[2]:19 0.0045
17 chany_top_in[2]:21 chany_top_in[2]:20 0.00341
18 chany_top_in[2]:19 chany_top_in[2]:18 0.0004933036
19 chany_top_in[2]:18 mux_left_track_1\/mux_l1_in_0_:A0 0.152
20 chany_top_in[2]:5 chany_top_in[2]:4 0.0003370536
21 chany_top_in[2]:6 chany_top_in[2]:5 0.0045
22 chany_top_in[2]:4 BUFT_P_97:A 0.152
23 chany_top_in[2]:24 chany_top_in[2]:23 0.003302533

*END

*D_NET chany_top_in[17] 0.01796223 //LENGTH 116.610 LUMPCC 0.006165682 DR

*CONN
*P chany_top_in[17] I *L 0.29796 *C 41.400 96.630
*I mux_left_track_23\/mux_l1_in_0_:A1 I *L 0.00198 *C 29.440 52.700
*I mux_bottom_track_17\/mux_l1_in_0_:A0 I *L 0.001631 *C 55.375 17.000
*I BUFT_P_102:A I *L 0.001776 *C 48.760 14.960
*N chany_top_in[17]:4 *C 48.797 14.960
*N chany_top_in[17]:5 *C 49.635 14.960
*N chany_top_in[17]:6 *C 49.680 15.005
*N chany_top_in[17]:7 *C 55.338 17.000
*N chany_top_in[17]:8 *C 49.725 17.000
*N chany_top_in[17]:9 *C 49.680 17.000
*N chany_top_in[17]:10 *C 49.680 19.663
*N chany_top_in[17]:11 *C 49.672 19.720
*N chany_top_in[17]:12 *C 36.820 19.720
*N chany_top_in[17]:13 *C 36.800 19.728
*N chany_top_in[17]:14 *C 29.440 52.700
*N chany_top_in[17]:15 *C 29.440 52.700
*N chany_top_in[17]:16 *C 29.440 52.360
*N chany_top_in[17]:17 *C 29.448 52.360
*N chany_top_in[17]:18 *C 36.780 52.360
*N chany_top_in[17]:19 *C 36.800 52.360
*N chany_top_in[17]:20 *C 37.720 52.360
*N chany_top_in[17]:21 *C 37.720 95.873
*N chany_top_in[17]:22 *C 37.740 95.880
*N chany_top_in[17]:23 *C 41.393 95.880
*N chany_top_in[17]:24 *C 41.400 95.938

*CAP
0 chany_top_in[17] 6.072783e-05
1 mux_left_track_23\/mux_l1_in_0_:A1 1e-06
2 mux_bottom_track_17\/mux_l1_in_0_:A0 1e-06
3 BUFT_P_102:A 1e-06
4 chany_top_in[17]:4 8.688553e-05
5 chany_top_in[17]:5 8.688553e-05
6 chany_top_in[17]:6 0.0001390277
7 chany_top_in[17]:7 0.0002777239
8 chany_top_in[17]:8 0.0002777239
9 chany_top_in[17]:9 0.0003490622
10 chany_top_in[17]:10 0.0001737109
11 chany_top_in[17]:11 0.0007127352
12 chany_top_in[17]:12 0.0007127352
13 chany_top_in[17]:13 0.001346421
14 chany_top_in[17]:14 3.384564e-05
15 chany_top_in[17]:15 5.545216e-05
16 chany_top_in[17]:16 5.935944e-05
17 chany_top_in[17]:17 0.0006259028
18 chany_top_in[17]:18 0.0006259028
19 chany_top_in[17]:19 0.001376069
20 chany_top_in[17]:20 0.002073291
21 chany_top_in[17]:21 0.002043643
22 chany_top_in[17]:22 0.0003078562
23 chany_top_in[17]:23 0.0003078562
24 chany_top_in[17]:24 6.072783e-05
25 chany_top_in[17]:21 chany_top_in[18] 9.229626e-05
26 chany_top_in[17]:21 chany_top_in[18]:18 0.0006626407
27 chany_top_in[17]:13 chany_top_in[18]:17 9.734225e-05
28 chany_top_in[17]:19 chany_top_in[18]:18 9.734225e-05
29 chany_top_in[17]:20 chany_top_in[18]:17 0.0006626407
30 chany_top_in[17]:20 chany_top_in[18]:18 9.229626e-05
31 chany_top_in[17]:13 chany_bottom_in[12]:27 0.0006102978
32 chany_top_in[17]:19 chany_bottom_in[12]:26 0.0006102978
33 chany_top_in[17]:13 chany_bottom_in[18]:23 0.000283334
34 chany_top_in[17]:19 chany_bottom_in[18]:22 0.000283334
35 chany_top_in[17]:11 chanx_left_in[11]:17 0.0006951084
36 chany_top_in[17]:12 chanx_left_in[11] 0.0006951084
37 chany_top_in[17]:8 mux_bottom_track_17/sky130_fd_sc_hd__mux2_1_1_X[0]:3 0.000217896
38 chany_top_in[17]:7 mux_bottom_track_17/sky130_fd_sc_hd__mux2_1_1_X[0]:2 0.000217896
39 chany_top_in[17]:21 mux_left_track_3/sky130_fd_sc_hd__mux2_1_6_X[0]:7 0.0003856447
40 chany_top_in[17]:19 mux_left_track_3/sky130_fd_sc_hd__mux2_1_6_X[0]:9 3.8281e-05
41 chany_top_in[17]:20 mux_left_track_3/sky130_fd_sc_hd__mux2_1_6_X[0]:8 0.0003856447
42 chany_top_in[17]:20 mux_left_track_3/sky130_fd_sc_hd__mux2_1_6_X[0]:10 3.8281e-05

*RES
0 chany_top_in[17] chany_top_in[17]:24 0.0006183035
1 chany_top_in[17]:22 chany_top_in[17]:21 0.00341
2 chany_top_in[17]:21 chany_top_in[17]:20 0.006816958
3 chany_top_in[17]:24 chany_top_in[17]:23 0.00341
4 chany_top_in[17]:23 chany_top_in[17]:22 0.000572225
5 chany_top_in[17]:10 chany_top_in[17]:9 0.002377232
6 chany_top_in[17]:11 chany_top_in[17]:10 0.00341
7 chany_top_in[17]:12 chany_top_in[17]:11 0.002013558
8 chany_top_in[17]:13 chany_top_in[17]:12 0.00341
9 chany_top_in[17]:5 chany_top_in[17]:4 0.0007477679
10 chany_top_in[17]:6 chany_top_in[17]:5 0.0045
11 chany_top_in[17]:4 BUFT_P_102:A 0.152
12 chany_top_in[17]:8 chany_top_in[17]:7 0.005011161
13 chany_top_in[17]:9 chany_top_in[17]:8 0.0045
14 chany_top_in[17]:9 chany_top_in[17]:6 0.00178125
15 chany_top_in[17]:7 mux_bottom_track_17\/mux_l1_in_0_:A0 0.152
16 chany_top_in[17]:18 chany_top_in[17]:17 0.001148758
17 chany_top_in[17]:19 chany_top_in[17]:18 0.00341
18 chany_top_in[17]:19 chany_top_in[17]:13 0.005112424
19 chany_top_in[17]:16 chany_top_in[17]:15 0.0001634615
20 chany_top_in[17]:17 chany_top_in[17]:16 0.00341
21 chany_top_in[17]:14 mux_left_track_23\/mux_l1_in_0_:A1 0.152
22 chany_top_in[17]:15 chany_top_in[17]:14 0.0045
23 chany_top_in[17]:20 chany_top_in[17]:19 0.0001441333

*END

*D_NET chany_top_in[18] 0.01301293 //LENGTH 99.933 LUMPCC 0.002770167 DR

*CONN
*P chany_top_in[18] I *L 0.29796 *C 39.560 96.710
*I mux_left_track_25\/mux_l1_in_0_:A1 I *L 0.00198 *C 31.645 41.820
*I mux_bottom_track_25\/mux_l1_in_0_:A0 I *L 0.001631 *C 43.070 22.780
*I FTB_18__17:A I *L 0.001767 *C 38.640 14.960
*N chany_top_in[18]:4 *C 38.678 14.960
*N chany_top_in[18]:5 *C 41.355 14.960
*N chany_top_in[18]:6 *C 41.400 15.005
*N chany_top_in[18]:7 *C 43.032 22.780
*N chany_top_in[18]:8 *C 41.445 22.780
*N chany_top_in[18]:9 *C 41.400 22.780
*N chany_top_in[18]:10 *C 31.683 41.820
*N chany_top_in[18]:11 *C 32.660 41.820
*N chany_top_in[18]:12 *C 32.660 41.480
*N chany_top_in[18]:13 *C 41.355 41.480
*N chany_top_in[18]:14 *C 41.400 41.480
*N chany_top_in[18]:15 *C 41.393 41.480
*N chany_top_in[18]:16 *C 39.580 41.480
*N chany_top_in[18]:17 *C 39.560 41.488
*N chany_top_in[18]:18 *C 39.560 91.315

*CAP
0 chany_top_in[18] 0.0002559071
1 mux_left_track_25\/mux_l1_in_0_:A1 1e-06
2 mux_bottom_track_25\/mux_l1_in_0_:A0 1e-06
3 FTB_18__17:A 1e-06
4 chany_top_in[18]:4 0.0002123239
5 chany_top_in[18]:5 0.0002123239
6 chany_top_in[18]:6 0.0004465454
7 chany_top_in[18]:7 0.0001235549
8 chany_top_in[18]:8 0.0001235549
9 chany_top_in[18]:9 0.001552662
10 chany_top_in[18]:10 0.0001081988
11 chany_top_in[18]:11 0.0001343235
12 chany_top_in[18]:12 0.000673435
13 chany_top_in[18]:13 0.0006473103
14 chany_top_in[18]:14 0.001111079
15 chany_top_in[18]:15 0.0001632685
16 chany_top_in[18]:16 0.0001632685
17 chany_top_in[18]:17 0.002028048
18 chany_top_in[18]:18 0.002283955
19 chany_top_in[18] chany_top_in[12]:20 2.060757e-05
20 chany_top_in[18]:14 chany_top_in[12]:14 1.088747e-06
21 chany_top_in[18]:15 chany_top_in[12]:17 2.976878e-08
22 chany_top_in[18]:16 chany_top_in[12]:16 2.976878e-08
23 chany_top_in[18]:17 chany_top_in[12]:18 0.0004502058
24 chany_top_in[18]:17 chany_top_in[12]:19 6.087219e-05
25 chany_top_in[18]:9 chany_top_in[12]:15 1.088747e-06
26 chany_top_in[18]:18 chany_top_in[12]:19 0.0004708134
27 chany_top_in[18]:18 chany_top_in[12]:20 6.087219e-05
28 chany_top_in[18] chany_top_in[17]:21 9.229626e-05
29 chany_top_in[18]:17 chany_top_in[17]:13 9.734225e-05
30 chany_top_in[18]:17 chany_top_in[17]:20 0.0006626407
31 chany_top_in[18]:18 chany_top_in[17]:19 9.734225e-05
32 chany_top_in[18]:18 chany_top_in[17]:20 9.229626e-05
33 chany_top_in[18]:18 chany_top_in[17]:21 0.0006626407

*RES
0 chany_top_in[18] chany_top_in[18]:18 0.0008452166
1 chany_top_in[18]:4 FTB_18__17:A 0.152
2 chany_top_in[18]:5 chany_top_in[18]:4 0.002390625
3 chany_top_in[18]:6 chany_top_in[18]:5 0.0045
4 chany_top_in[18]:14 chany_top_in[18]:13 0.0045
5 chany_top_in[18]:14 chany_top_in[18]:9 0.01669643
6 chany_top_in[18]:15 chany_top_in[18]:14 0.00341
7 chany_top_in[18]:16 chany_top_in[18]:15 0.0002839583
8 chany_top_in[18]:17 chany_top_in[18]:16 0.00341
9 chany_top_in[18]:8 chany_top_in[18]:7 0.001417411
10 chany_top_in[18]:9 chany_top_in[18]:8 0.0045
11 chany_top_in[18]:9 chany_top_in[18]:6 0.006941965
12 chany_top_in[18]:7 mux_bottom_track_25\/mux_l1_in_0_:A0 0.152
13 chany_top_in[18]:13 chany_top_in[18]:12 0.007763393
14 chany_top_in[18]:10 mux_left_track_25\/mux_l1_in_0_:A1 0.152
15 chany_top_in[18]:11 chany_top_in[18]:10 0.0008727679
16 chany_top_in[18]:12 chany_top_in[18]:11 0.0003035715
17 chany_top_in[18]:18 chany_top_in[18]:17 0.007806308

*END

*D_NET chany_top_in[19] 0.01632606 //LENGTH 112.685 LUMPCC 0.005053402 DR

*CONN
*P chany_top_in[19] I *L 0.29796 *C 39.560 96.630
*I ropt_mt_inst_732:A I *L 0.001767 *C 3.220 25.840
*N chany_top_in[19]:2 *C 3.183 25.840
*N chany_top_in[19]:3 *C 2.345 25.840
*N chany_top_in[19]:4 *C 2.300 25.840
*N chany_top_in[19]:5 *C 2.300 33.943
*N chany_top_in[19]:6 *C 2.308 34.000
*N chany_top_in[19]:7 *C 7.340 34.000
*N chany_top_in[19]:8 *C 7.360 34.008
*N chany_top_in[19]:9 *C 7.360 52.360
*N chany_top_in[19]:10 *C 8.280 52.360
*N chany_top_in[19]:11 *C 8.280 70.713
*N chany_top_in[19]:12 *C 8.300 70.720
*N chany_top_in[19]:13 *C 20.220 70.720
*N chany_top_in[19]:14 *C 20.240 70.728
*N chany_top_in[19]:15 *C 20.240 84.993
*N chany_top_in[19]:16 *C 20.260 85.000
*N chany_top_in[19]:17 *C 39.093 85.000
*N chany_top_in[19]:18 *C 39.100 85.058
*N chany_top_in[19]:19 *C 39.100 88.740
*N chany_top_in[19]:20 *C 39.560 88.740

*CAP
0 chany_top_in[19] 0.0004672014
1 ropt_mt_inst_732:A 1e-06
2 chany_top_in[19]:2 6.708913e-05
3 chany_top_in[19]:3 6.708913e-05
4 chany_top_in[19]:4 0.0005010282
5 chany_top_in[19]:5 0.0004722568
6 chany_top_in[19]:6 0.0002113482
7 chany_top_in[19]:7 0.0002113482
8 chany_top_in[19]:8 0.0007807589
9 chany_top_in[19]:9 0.0008460298
10 chany_top_in[19]:10 0.0008812331
11 chany_top_in[19]:11 0.0008159622
12 chany_top_in[19]:12 0.0003489375
13 chany_top_in[19]:13 0.0003489375
14 chany_top_in[19]:14 0.001061544
15 chany_top_in[19]:15 0.001061544
16 chany_top_in[19]:16 0.001120527
17 chany_top_in[19]:17 0.001120527
18 chany_top_in[19]:18 0.0001786749
19 chany_top_in[19]:19 0.0002105475
20 chany_top_in[19]:20 0.0004990739
21 chany_top_in[19]:16 top_left_grid_pin_34_[0]:15 0.0002124934
22 chany_top_in[19]:16 top_left_grid_pin_34_[0]:14 6.482427e-05
23 chany_top_in[19]:17 top_left_grid_pin_34_[0]:14 0.0002124934
24 chany_top_in[19]:17 top_left_grid_pin_34_[0]:10 6.482427e-05
25 chany_top_in[19]:12 chanx_left_in[0]:15 6.062521e-05
26 chany_top_in[19]:12 chanx_left_in[0]:18 0.0003656755
27 chany_top_in[19]:12 chanx_left_in[0]:16 3.08417e-05
28 chany_top_in[19]:13 chanx_left_in[0]:10 6.062521e-05
29 chany_top_in[19]:13 chanx_left_in[0]:15 3.08417e-05
30 chany_top_in[19]:13 chanx_left_in[0]:17 0.0003656755
31 chany_top_in[19]:8 chanx_left_in[1]:9 8.699247e-05
32 chany_top_in[19]:11 chanx_left_in[1]:16 0.0001578898
33 chany_top_in[19]:11 chanx_left_in[1]:17 0.0001842539
34 chany_top_in[19]:9 chanx_left_in[1]:16 8.699247e-05
35 chany_top_in[19]:10 chanx_left_in[1]:16 0.0001842539
36 chany_top_in[19]:10 chanx_left_in[1]:9 0.0001578898
37 chany_top_in[19]:4 chanx_left_in[10]:11 6.55686e-06
38 chany_top_in[19]:5 chanx_left_in[10] 6.55686e-06
39 chany_top_in[19]:6 chanx_left_in[10]:11 0.0002950807
40 chany_top_in[19]:7 chanx_left_in[10]:10 0.0002950807
41 chany_top_in[19]:4 chanx_left_in[16]:20 5.665579e-06
42 chany_top_in[19]:4 chanx_left_in[16]:21 7.508675e-06
43 chany_top_in[19]:5 chanx_left_in[16]:17 5.665579e-06
44 chany_top_in[19]:5 chanx_left_in[16]:20 7.508675e-06
45 chany_top_in[19]:6 chanx_left_in[16]:16 2.957225e-06
46 chany_top_in[19]:7 chanx_left_in[16]:15 2.957225e-06
47 chany_top_in[19]:8 chanx_left_in[16]:14 0.0002039356
48 chany_top_in[19]:11 chanx_left_in[16]:13 8.408054e-05
49 chany_top_in[19]:9 chanx_left_in[16]:13 0.0002039356
50 chany_top_in[19]:10 chanx_left_in[16]:14 8.408054e-05
51 chany_top_in[19]:12 left_top_grid_pin_46_[0]:24 0.0006701601
52 chany_top_in[19]:13 left_top_grid_pin_46_[0]:23 0.0006701601
53 chany_top_in[19]:18 mux_top_track_4/sky130_fd_sc_hd__mux2_1_2_X[0]:5 8.715979e-05
54 chany_top_in[19]:19 mux_top_track_4/sky130_fd_sc_hd__mux2_1_2_X[0]:6 8.715979e-05

*RES
0 chany_top_in[19] chany_top_in[19]:20 0.007044644
1 chany_top_in[19]:2 ropt_mt_inst_732:A 0.152
2 chany_top_in[19]:3 chany_top_in[19]:2 0.0007477679
3 chany_top_in[19]:4 chany_top_in[19]:3 0.0045
4 chany_top_in[19]:5 chany_top_in[19]:4 0.007234375
5 chany_top_in[19]:6 chany_top_in[19]:5 0.00341
6 chany_top_in[19]:7 chany_top_in[19]:6 0.000788425
7 chany_top_in[19]:8 chany_top_in[19]:7 0.00341
8 chany_top_in[19]:12 chany_top_in[19]:11 0.00341
9 chany_top_in[19]:11 chany_top_in[19]:10 0.002875225
10 chany_top_in[19]:13 chany_top_in[19]:12 0.001867467
11 chany_top_in[19]:14 chany_top_in[19]:13 0.00341
12 chany_top_in[19]:16 chany_top_in[19]:15 0.00341
13 chany_top_in[19]:15 chany_top_in[19]:14 0.00223485
14 chany_top_in[19]:18 chany_top_in[19]:17 0.00341
15 chany_top_in[19]:17 chany_top_in[19]:16 0.002950425
16 chany_top_in[19]:19 chany_top_in[19]:18 0.003287947
17 chany_top_in[19]:20 chany_top_in[19]:19 0.0004107143
18 chany_top_in[19]:9 chany_top_in[19]:8 0.002875225
19 chany_top_in[19]:10 chany_top_in[19]:9 0.0001441333

*END

*D_NET chany_bottom_in[2] 0.01756194 //LENGTH 118.740 LUMPCC 0.005937786 DR

*CONN
*P chany_bottom_in[2] I *L 0.29796 *C 68.540 1.290
*I mux_left_track_1\/mux_l1_in_1_:A1 I *L 0.00198 *C 59.900 61.540
*I mux_top_track_0\/mux_l1_in_2_:A0 I *L 0.001631 *C 53.650 87.720
*I BUFT_RR_70:A I *L 0.001776 *C 46.920 85.680
*N chany_bottom_in[2]:4 *C 46.958 85.680
*N chany_bottom_in[2]:5 *C 49.635 85.680
*N chany_bottom_in[2]:6 *C 49.680 85.725
*N chany_bottom_in[2]:7 *C 49.680 87.675
*N chany_bottom_in[2]:8 *C 49.725 87.720
*N chany_bottom_in[2]:9 *C 53.650 87.720
*N chany_bottom_in[2]:10 *C 54.695 87.720
*N chany_bottom_in[2]:11 *C 54.740 87.765
*N chany_bottom_in[2]:12 *C 54.740 89.023
*N chany_bottom_in[2]:13 *C 54.748 89.080
*N chany_bottom_in[2]:14 *C 59.780 89.080
*N chany_bottom_in[2]:15 *C 59.800 89.073
*N chany_bottom_in[2]:16 *C 59.800 72.767
*N chany_bottom_in[2]:17 *C 59.820 72.760
*N chany_bottom_in[2]:18 *C 60.713 72.760
*N chany_bottom_in[2]:19 *C 60.720 72.703
*N chany_bottom_in[2]:20 *C 59.938 61.540
*N chany_bottom_in[2]:21 *C 60.720 61.540
*N chany_bottom_in[2]:22 *C 60.720 61.880
*N chany_bottom_in[2]:23 *C 60.720 61.880
*N chany_bottom_in[2]:24 *C 61.180 61.880
*N chany_bottom_in[2]:25 *C 61.180 59.218
*N chany_bottom_in[2]:26 *C 61.188 59.160
*N chany_bottom_in[2]:27 *C 62.540 59.160
*N chany_bottom_in[2]:28 *C 62.560 59.153
*N chany_bottom_in[2]:29 *C 62.560 5.448
*N chany_bottom_in[2]:30 *C 62.580 5.440
*N chany_bottom_in[2]:31 *C 68.532 5.440
*N chany_bottom_in[2]:32 *C 68.540 5.383

*CAP
0 chany_bottom_in[2] 0.0002093978
1 mux_left_track_1\/mux_l1_in_1_:A1 1e-06
2 mux_top_track_0\/mux_l1_in_2_:A0 1e-06
3 BUFT_RR_70:A 1e-06
4 chany_bottom_in[2]:4 0.0001448063
5 chany_bottom_in[2]:5 0.0001448063
6 chany_bottom_in[2]:6 0.000136391
7 chany_bottom_in[2]:7 0.000136391
8 chany_bottom_in[2]:8 0.0002526297
9 chany_bottom_in[2]:9 0.0003386713
10 chany_bottom_in[2]:10 5.626515e-05
11 chany_bottom_in[2]:11 9.611698e-05
12 chany_bottom_in[2]:12 9.611698e-05
13 chany_bottom_in[2]:13 0.0003971799
14 chany_bottom_in[2]:14 0.0003971799
15 chany_bottom_in[2]:15 0.001415207
16 chany_bottom_in[2]:16 0.001415207
17 chany_bottom_in[2]:17 0.0001465394
18 chany_bottom_in[2]:18 0.0001465394
19 chany_bottom_in[2]:19 0.0006013284
20 chany_bottom_in[2]:20 7.005122e-05
21 chany_bottom_in[2]:21 9.940929e-05
22 chany_bottom_in[2]:22 6.369962e-05
23 chany_bottom_in[2]:23 0.0006300245
24 chany_bottom_in[2]:24 0.0002007258
25 chany_bottom_in[2]:25 0.0001720298
26 chany_bottom_in[2]:26 0.0001307712
27 chany_bottom_in[2]:27 0.0001307712
28 chany_bottom_in[2]:28 0.001426942
29 chany_bottom_in[2]:29 0.001426942
30 chany_bottom_in[2]:30 0.0004648105
31 chany_bottom_in[2]:31 0.0004648105
32 chany_bottom_in[2]:32 0.0002093978
33 chany_bottom_in[2] chany_bottom_in[4] 3.657392e-05
34 chany_bottom_in[2]:28 chany_bottom_in[4]:20 9.535312e-05
35 chany_bottom_in[2]:28 chany_bottom_in[4]:21 0.0009732798
36 chany_bottom_in[2]:30 chany_bottom_in[4]:23 9.813889e-05
37 chany_bottom_in[2]:29 chany_bottom_in[4]:22 0.0009732798
38 chany_bottom_in[2]:29 chany_bottom_in[4]:21 9.535312e-05
39 chany_bottom_in[2]:32 chany_bottom_in[4]:25 3.657392e-05
40 chany_bottom_in[2]:31 chany_bottom_in[4]:24 9.813889e-05
41 chany_bottom_in[2]:28 chany_bottom_in[5]:23 0.0007327964
42 chany_bottom_in[2]:28 chany_bottom_in[5]:15 0.0003448465
43 chany_bottom_in[2]:29 chany_bottom_in[5]:24 0.0007327964
44 chany_bottom_in[2]:29 chany_bottom_in[5]:23 0.0003448465
45 chany_bottom_in[2]:16 chany_bottom_in[5]:23 0.0003909608
46 chany_bottom_in[2]:15 chany_bottom_in[5]:15 0.0003909608
47 chany_bottom_in[2]:8 mux_top_track_4/sky130_fd_sc_hd__mux2_1_11_X[0]:7 4.923783e-05
48 chany_bottom_in[2]:9 mux_top_track_4/sky130_fd_sc_hd__mux2_1_11_X[0]:7 4.569956e-05
49 chany_bottom_in[2]:9 mux_top_track_4/sky130_fd_sc_hd__mux2_1_11_X[0]:6 4.923783e-05
50 chany_bottom_in[2]:10 mux_top_track_4/sky130_fd_sc_hd__mux2_1_11_X[0]:6 4.569956e-05
51 chany_bottom_in[2]:4 mux_top_track_4/sky130_fd_sc_hd__mux2_1_7_X[0]:3 1.625112e-05
52 chany_bottom_in[2]:4 mux_top_track_4/sky130_fd_sc_hd__mux2_1_7_X[0]:7 9.370561e-05
53 chany_bottom_in[2]:5 mux_top_track_4/sky130_fd_sc_hd__mux2_1_7_X[0]:2 1.625112e-05
54 chany_bottom_in[2]:5 mux_top_track_4/sky130_fd_sc_hd__mux2_1_7_X[0]:6 9.370561e-05
55 chany_bottom_in[2]:6 mux_top_track_4/sky130_fd_sc_hd__mux2_1_7_X[0]:4 1.708628e-05
56 chany_bottom_in[2]:7 mux_top_track_4/sky130_fd_sc_hd__mux2_1_7_X[0]:5 1.708628e-05
57 chany_bottom_in[2]:23 mux_left_track_1/sky130_fd_sc_hd__mux2_1_4_X[0]:3 6.043193e-06
58 chany_bottom_in[2]:23 mux_left_track_1/sky130_fd_sc_hd__mux2_1_4_X[0]:4 6.891965e-05
59 chany_bottom_in[2]:19 mux_left_track_1/sky130_fd_sc_hd__mux2_1_4_X[0]:5 6.891965e-05
60 chany_bottom_in[2]:24 mux_left_track_1/sky130_fd_sc_hd__mux2_1_4_X[0]:2 6.043193e-06

*RES
0 chany_bottom_in[2] chany_bottom_in[2]:32 0.003654018
1 chany_bottom_in[2]:4 BUFT_RR_70:A 0.152
2 chany_bottom_in[2]:5 chany_bottom_in[2]:4 0.002390625
3 chany_bottom_in[2]:6 chany_bottom_in[2]:5 0.0045
4 chany_bottom_in[2]:8 chany_bottom_in[2]:7 0.0045
5 chany_bottom_in[2]:7 chany_bottom_in[2]:6 0.001741072
6 chany_bottom_in[2]:22 chany_bottom_in[2]:21 0.0003035715
7 chany_bottom_in[2]:23 chany_bottom_in[2]:22 0.0045
8 chany_bottom_in[2]:23 chany_bottom_in[2]:19 0.009662947
9 chany_bottom_in[2]:20 mux_left_track_1\/mux_l1_in_1_:A1 0.152
10 chany_bottom_in[2]:9 mux_top_track_0\/mux_l1_in_2_:A0 0.152
11 chany_bottom_in[2]:9 chany_bottom_in[2]:8 0.003504465
12 chany_bottom_in[2]:25 chany_bottom_in[2]:24 0.002377233
13 chany_bottom_in[2]:26 chany_bottom_in[2]:25 0.00341
14 chany_bottom_in[2]:27 chany_bottom_in[2]:26 0.0002118916
15 chany_bottom_in[2]:28 chany_bottom_in[2]:27 0.00341
16 chany_bottom_in[2]:30 chany_bottom_in[2]:29 0.00341
17 chany_bottom_in[2]:29 chany_bottom_in[2]:28 0.008413782
18 chany_bottom_in[2]:32 chany_bottom_in[2]:31 0.00341
19 chany_bottom_in[2]:31 chany_bottom_in[2]:30 0.0009325583
20 chany_bottom_in[2]:19 chany_bottom_in[2]:18 0.00341
21 chany_bottom_in[2]:18 chany_bottom_in[2]:17 0.000139825
22 chany_bottom_in[2]:17 chany_bottom_in[2]:16 0.00341
23 chany_bottom_in[2]:16 chany_bottom_in[2]:15 0.00255445
24 chany_bottom_in[2]:14 chany_bottom_in[2]:13 0.000788425
25 chany_bottom_in[2]:15 chany_bottom_in[2]:14 0.00341
26 chany_bottom_in[2]:12 chany_bottom_in[2]:11 0.001122768
27 chany_bottom_in[2]:13 chany_bottom_in[2]:12 0.00341
28 chany_bottom_in[2]:10 chany_bottom_in[2]:9 0.0009330357
29 chany_bottom_in[2]:11 chany_bottom_in[2]:10 0.0045
30 chany_bottom_in[2]:21 chany_bottom_in[2]:20 0.0006986607
31 chany_bottom_in[2]:24 chany_bottom_in[2]:23 0.0004107143

*END

*D_NET chany_bottom_in[4] 0.01801191 //LENGTH 114.622 LUMPCC 0.008440209 DR

*CONN
*P chany_bottom_in[4] I *L 0.29796 *C 69.460 1.290
*I mux_left_track_3\/mux_l1_in_1_:A1 I *L 0.00198 *C 64.400 61.540
*I mux_top_track_2\/mux_l2_in_1_:A0 I *L 0.001631 *C 40.655 80.580
*I FTB_21__20:A I *L 0.001767 *C 55.660 82.960
*N chany_bottom_in[4]:4 *C 55.623 82.960
*N chany_bottom_in[4]:5 *C 55.245 82.960
*N chany_bottom_in[4]:6 *C 55.200 82.915
*N chany_bottom_in[4]:7 *C 40.693 80.580
*N chany_bottom_in[4]:8 *C 55.155 80.580