*SPEF "1481-1998"
*DESIGN "sb_2__1_"
*DATE "Mon Oct 26 23:03:32 2020"
*
*
*
*
*DIVIDER /
*DELIMITER :
*T_UNIT 1 NS
*C_UNIT 1 PF
*R_UNIT 1 KOHM
*L_UNIT 1 HENRY

// XY_UNIT 1 UM
// PARASITIC_TECH nominal at 25.000 degree

*PORTS
prog_clk[0] I *C 2.300 27.880
chany_top_in[0] I *C 80.500 129.880
chany_top_in[1] I *C 57.500 129.880
chany_top_in[2] I *C 82.340 129.880
chany_top_in[3] I *C 74.060 129.880
chany_top_in[4] I *C 51.980 129.880
chany_top_in[5] I *C 60.260 129.880
chany_top_in[6] I *C 74.980 129.880
chany_top_in[7] I *C 66.700 129.880
chany_top_in[8] I *C 72.220 129.880
chany_top_in[9] I *C 67.620 129.880
chany_top_in[10] I *C 73.140 129.880
chany_top_in[11] I *C 75.900 129.880
chany_top_in[12] I *C 52.900 129.880
chany_top_in[13] I *C 63.480 129.880
chany_top_in[14] I *C 54.740 129.880
chany_top_in[15] I *C 53.820 129.880
chany_top_in[16] I *C 69.460 129.880
chany_top_in[17] I *C 81.420 129.880
chany_top_in[18] I *C 84.640 129.880
chany_top_in[19] I *C 59.340 129.880
top_left_grid_pin_34_[0] I *C 32.660 129.880
top_left_grid_pin_35_[0] I *C 30.820 129.880
top_left_grid_pin_36_[0] I *C 29.210 127.160
top_left_grid_pin_37_[0] I *C 31.740 129.880
top_left_grid_pin_38_[0] I *C 29.210 125.120
top_left_grid_pin_39_[0] I *C 29.210 123.760
top_left_grid_pin_40_[0] I *C 29.210 122.400
top_left_grid_pin_41_[0] I *C 29.210 117.640
top_right_grid_pin_1_[0] I *C 108.100 129.880
chany_bottom_in[0] I *C 82.340 0.680
chany_bottom_in[1] I *C 67.160 0.680
chany_bottom_in[2] I *C 81.420 0.680
chany_bottom_in[3] I *C 88.320 0.680
chany_bottom_in[4] I *C 65.320 0.680
chany_bottom_in[5] I *C 75.900 0.680
chany_bottom_in[6] I *C 94.300 0.680
chany_bottom_in[7] I *C 87.400 0.680
chany_bottom_in[8] I *C 77.740 0.680
chany_bottom_in[9] I *C 84.180 0.680
chany_bottom_in[10] I *C 62.560 0.680
chany_bottom_in[11] I *C 86.480 0.680
chany_bottom_in[12] I *C 79.580 0.680
chany_bottom_in[13] I *C 68.080 0.680
chany_bottom_in[14] I *C 66.240 0.680
chany_bottom_in[15] I *C 53.360 0.680
chany_bottom_in[16] I *C 76.820 0.680
chany_bottom_in[17] I *C 69.920 0.680
chany_bottom_in[18] I *C 57.500 0.680
chany_bottom_in[19] I *C 78.660 0.680
bottom_right_grid_pin_1_[0] I *C 110.860 0.680
bottom_left_grid_pin_34_[0] I *C 29.210 10.200
bottom_left_grid_pin_35_[0] I *C 29.210 8.160
bottom_left_grid_pin_36_[0] I *C 29.210 6.800
bottom_left_grid_pin_37_[0] I *C 29.210 3.400
bottom_left_grid_pin_38_[0] I *C 29.210 4.760
bottom_left_grid_pin_39_[0] I *C 29.210 11.560
bottom_left_grid_pin_40_[0] I *C 29.210 12.920
bottom_left_grid_pin_41_[0] I *C 29.210 14.280
chanx_left_in[0] I *C 0.690 76.160
chanx_left_in[1] I *C 0.690 38.080
chanx_left_in[2] I *C 0.690 46.240
chanx_left_in[3] I *C 0.690 39.440
chanx_left_in[4] I *C 0.690 85.680
chanx_left_in[5] I *C 0.690 87.040
chanx_left_in[6] I *C 0.690 34.000
chanx_left_in[7] I *C 0.690 42.160
chanx_left_in[8] I *C 0.690 43.520
chanx_left_in[9] I *C 0.690 72.080
chanx_left_in[10] I *C 0.690 59.160
chanx_left_in[11] I *C 0.690 36.720
chanx_left_in[12] I *C 0.690 97.920
chanx_left_in[13] I *C 0.690 93.840
chanx_left_in[14] I *C 0.690 92.480
chanx_left_in[15] I *C 0.690 77.520
chanx_left_in[16] I *C 0.690 51.680
chanx_left_in[17] I *C 0.690 55.760
chanx_left_in[18] I *C 0.690 68.000
chanx_left_in[19] I *C 0.690 35.360
left_top_grid_pin_42_[0] I *C 7.360 102.680
left_top_grid_pin_43_[0] I *C 29.210 119.000
left_top_grid_pin_44_[0] I *C 4.140 102.680
left_top_grid_pin_45_[0] I *C 5.060 102.680
left_top_grid_pin_46_[0] I *C 2.300 102.680
left_top_grid_pin_47_[0] I *C 3.220 102.680
left_top_grid_pin_48_[0] I *C 11.500 102.680
left_top_grid_pin_49_[0] I *C 10.580 102.680
ccff_head[0] I *C 107.640 129.880
chany_top_out[0] O *C 76.820 129.880
chany_top_out[1] O *C 61.180 129.880
chany_top_out[2] O *C 77.740 129.880
chany_top_out[3] O *C 71.300 129.880
chany_top_out[4] O *C 98.900 129.880
chany_top_out[5] O *C 83.720 129.880
chany_top_out[6] O *C 70.380 129.880
chany_top_out[7] O *C 50.140 129.880
chany_top_out[8] O *C 68.540 129.880
chany_top_out[9] O *C 58.420 129.880
chany_top_out[10] O *C 96.600 129.880
chany_top_out[11] O *C 93.840 129.880
chany_top_out[12] O *C 79.580 129.880
chany_top_out[13] O *C 64.400 129.880
chany_top_out[14] O *C 97.520 129.880
chany_top_out[15] O *C 51.060 129.880
chany_top_out[16] O *C 86.940 129.880
chany_top_out[17] O *C 62.100 129.880
chany_top_out[18] O *C 95.680 129.880
chany_top_out[19] O *C 78.660 129.880
chany_bottom_out[0] O *C 83.260 0.680
chany_bottom_out[1] O *C 59.800 0.680
chany_bottom_out[2] O *C 52.440 0.680
chany_bottom_out[3] O *C 69.000 0.680
chany_bottom_out[4] O *C 96.600 0.680
chany_bottom_out[5] O *C 71.760 0.680
chany_bottom_out[6] O *C 74.980 0.680
chany_bottom_out[7] O *C 60.720 0.680
chany_bottom_out[8] O *C 63.480 0.680
chany_bottom_out[9] O *C 54.280 0.680
chany_bottom_out[10] O *C 93.380 0.680
chany_bottom_out[11] O *C 74.060 0.680
chany_bottom_out[12] O *C 80.500 0.680
chany_bottom_out[13] O *C 61.640 0.680
chany_bottom_out[14] O *C 97.520 0.680
chany_bottom_out[15] O *C 55.200 0.680
chany_bottom_out[16] O *C 64.400 0.680
chany_bottom_out[17] O *C 58.880 0.680
chany_bottom_out[18] O *C 73.140 0.680
chany_bottom_out[19] O *C 70.840 0.680
chanx_left_out[0] O *C 0.690 61.200
chanx_left_out[1] O *C 0.690 81.600
chanx_left_out[2] O *C 0.690 82.960
chanx_left_out[3] O *C 0.690 74.800
chanx_left_out[4] O *C 0.690 80.240
chanx_left_out[5] O *C 0.690 47.600
chanx_left_out[6] O *C 0.690 50.320
chanx_left_out[7] O *C 0.690 65.960
chanx_left_out[8] O *C 0.690 48.960
chanx_left_out[9] O *C 0.690 69.360
chanx_left_out[10] O *C 0.690 53.040
chanx_left_out[11] O *C 0.690 96.560
chanx_left_out[12] O *C 0.690 44.880
chanx_left_out[13] O *C 0.690 99.280
chanx_left_out[14] O *C 0.690 54.400
chanx_left_out[15] O *C 0.690 40.800
chanx_left_out[16] O *C 0.690 31.960
chanx_left_out[17] O *C 0.690 88.400
chanx_left_out[18] O *C 0.690 70.720
chanx_left_out[19] O *C 0.690 91.120
ccff_tail[0] O *C 0.690 64.600
VDD I *C 56.580 65.280
VSS I *C 56.580 65.280

*D_NET chany_top_in[1] 0.01407217 //LENGTH 91.275 LUMPCC 0.000937223 DR

*CONN
*P chany_top_in[1] I *L 0.29796 *C 57.500 129.270
*I FTB_1__0:A I *L 0.001776 *C 10.120 96.560
*N chany_top_in[1]:2 *C 40.080 93.160
*N chany_top_in[1]:3 *C 10.083 96.560
*N chany_top_in[1]:4 *C 9.245 96.560
*N chany_top_in[1]:5 *C 9.200 96.515
*N chany_top_in[1]:6 *C 9.200 93.205
*N chany_top_in[1]:7 *C 9.245 93.160
*N chany_top_in[1]:8 *C 40.435 93.160
*N chany_top_in[1]:9 *C 40.480 93.160
*N chany_top_in[1]:10 *C 40.480 93.160
*N chany_top_in[1]:11 *C 40.480 93.168
*N chany_top_in[1]:12 *C 40.480 121.032
*N chany_top_in[1]:13 *C 40.500 121.040
*N chany_top_in[1]:14 *C 57.492 121.040
*N chany_top_in[1]:15 *C 57.500 121.098

*CAP
0 chany_top_in[1] 0.0004707707
1 FTB_1__0:A 1e-06
2 chany_top_in[1]:2 7.724621e-05
3 chany_top_in[1]:3 0.000101451
4 chany_top_in[1]:4 0.000101451
5 chany_top_in[1]:5 0.0002063396
6 chany_top_in[1]:6 0.0002063396
7 chany_top_in[1]:7 0.002157227
8 chany_top_in[1]:8 0.002157227
9 chany_top_in[1]:9 3.744927e-05
10 chany_top_in[1]:10 7.724621e-05
11 chany_top_in[1]:11 0.002307442
12 chany_top_in[1]:12 0.002307442
13 chany_top_in[1]:13 0.001227773
14 chany_top_in[1]:14 0.001227773
15 chany_top_in[1]:15 0.0004707707
16 chany_top_in[1]:11 chany_top_in[3]:7 0.0002885943
17 chany_top_in[1]:13 chany_top_in[3]:9 2.372622e-05
18 chany_top_in[1]:12 chany_top_in[3]:8 0.0002885943
19 chany_top_in[1]:14 chany_top_in[3]:10 2.372622e-05
20 chany_top_in[1]:7 mux_tree_tapbuf_size7_3_sram[2]:9 0.000156291
21 chany_top_in[1]:8 mux_tree_tapbuf_size7_3_sram[2]:10 0.000156291

*RES
0 chany_top_in[1] chany_top_in[1]:15 0.007296875
1 chany_top_in[1]:3 FTB_1__0:A 0.152
2 chany_top_in[1]:4 chany_top_in[1]:3 0.0007477679
3 chany_top_in[1]:5 chany_top_in[1]:4 0.0045
4 chany_top_in[1]:7 chany_top_in[1]:6 0.0045
5 chany_top_in[1]:6 chany_top_in[1]:5 0.002955357
6 chany_top_in[1]:8 chany_top_in[1]:7 0.02784822
7 chany_top_in[1]:9 chany_top_in[1]:8 0.0045
8 chany_top_in[1]:10 chany_top_in[1]:9 0.00341
9 chany_top_in[1]:10 chany_top_in[1]:2 5.69697e-05
10 chany_top_in[1]:11 chany_top_in[1]:10 0.00341
11 chany_top_in[1]:13 chany_top_in[1]:12 0.00341
12 chany_top_in[1]:12 chany_top_in[1]:11 0.004365516
13 chany_top_in[1]:15 chany_top_in[1]:14 0.00341
14 chany_top_in[1]:14 chany_top_in[1]:13 0.002662158

*END

*D_NET chany_top_in[17] 0.02115542 //LENGTH 179.540 LUMPCC 0.003726257 DR

*CONN
*P chany_top_in[17] I *L 0.29796 *C 81.420 129.270
*I mux_left_track_23\/mux_l1_in_0_:A1 I *L 0.00198 *C 57.405 77.860
*I ropt_mt_inst_777:A I *L 0.001767 *C 74.980 4.080
*I mux_bottom_track_17\/mux_l1_in_0_:A0 I *L 0.001631 *C 63.310 44.540
*N chany_top_in[17]:4 *C 63.348 44.540
*N chany_top_in[17]:5 *C 64.355 44.540
*N chany_top_in[17]:6 *C 64.400 44.540
*N chany_top_in[17]:7 *C 74.943 4.080
*N chany_top_in[17]:8 *C 73.185 4.080
*N chany_top_in[17]:9 *C 73.140 4.125
*N chany_top_in[17]:10 *C 73.140 25.115
*N chany_top_in[17]:11 *C 73.185 25.160
*N chany_top_in[17]:12 *C 80.075 25.160
*N chany_top_in[17]:13 *C 80.050 25.205
*N chany_top_in[17]:14 *C 80.040 25.795
*N chany_top_in[17]:15 *C 79.995 25.840
*N chany_top_in[17]:16 *C 78.245 25.840
*N chany_top_in[17]:17 *C 78.200 25.885
*N chany_top_in[17]:18 *C 78.200 44.823
*N chany_top_in[17]:19 *C 78.193 44.880
*N chany_top_in[17]:20 *C 64.407 44.880
*N chany_top_in[17]:21 *C 64.400 44.938
*N chany_top_in[17]:22 *C 57.443 77.860
*N chany_top_in[17]:23 *C 64.355 77.860
*N chany_top_in[17]:24 *C 64.400 77.860
*N chany_top_in[17]:25 *C 64.400 86.303
*N chany_top_in[17]:26 *C 64.407 86.360
*N chany_top_in[17]:27 *C 79.100 86.360
*N chany_top_in[17]:28 *C 79.120 86.368
*N chany_top_in[17]:29 *C 79.120 127.833
*N chany_top_in[17]:30 *C 79.140 127.840
*N chany_top_in[17]:31 *C 81.413 127.840
*N chany_top_in[17]:32 *C 81.420 127.898

*CAP
0 chany_top_in[17] 0.0001037773
1 mux_left_track_23\/mux_l1_in_0_:A1 1e-06
2 ropt_mt_inst_777:A 1e-06
3 mux_bottom_track_17\/mux_l1_in_0_:A0 1e-06
4 chany_top_in[17]:4 8.043875e-05
5 chany_top_in[17]:5 8.043875e-05
6 chany_top_in[17]:6 4.683475e-05
7 chany_top_in[17]:7 0.0001499699
8 chany_top_in[17]:8 0.0001499699
9 chany_top_in[17]:9 0.001168151
10 chany_top_in[17]:10 0.001168151
11 chany_top_in[17]:11 0.0004238393
12 chany_top_in[17]:12 0.0004238393
13 chany_top_in[17]:13 6.234917e-05
14 chany_top_in[17]:14 6.234917e-05
15 chany_top_in[17]:15 0.0001259573
16 chany_top_in[17]:16 0.0001259573
17 chany_top_in[17]:17 0.0009722296
18 chany_top_in[17]:18 0.0009722296
19 chany_top_in[17]:19 0.0009879491
20 chany_top_in[17]:20 0.0009879491
21 chany_top_in[17]:21 0.001519597
22 chany_top_in[17]:22 0.0004245955
23 chany_top_in[17]:23 0.0004245955
24 chany_top_in[17]:24 0.001832438
25 chany_top_in[17]:25 0.0003011838
26 chany_top_in[17]:26 0.0008102575
27 chany_top_in[17]:27 0.0008102575
28 chany_top_in[17]:28 0.00139504
29 chany_top_in[17]:29 0.00139504
30 chany_top_in[17]:30 0.0001585016
31 chany_top_in[17]:31 0.0001585016
32 chany_top_in[17]:32 0.0001037773
33 chany_top_in[17] chany_top_in[2] 3.309684e-06
34 chany_top_in[17]:9 chany_top_in[2]:6 2.137094e-05
35 chany_top_in[17]:10 chany_top_in[2]:7 2.137094e-05
36 chany_top_in[17]:21 chany_top_in[2]:14 2.04611e-06
37 chany_top_in[17]:21 chany_top_in[2]:15 6.128436e-07
38 chany_top_in[17]:25 chany_top_in[2]:18 3.106402e-06
39 chany_top_in[17]:28 chany_top_in[2]:22 0.000473999
40 chany_top_in[17]:29 chany_top_in[2]:23 0.000473999
41 chany_top_in[17]:32 chany_top_in[2]:26 3.309684e-06
42 chany_top_in[17]:24 chany_top_in[2]:15 5.152512e-06
43 chany_top_in[17]:24 chany_top_in[2]:18 6.128436e-07
44 chany_top_in[17]:21 chany_bottom_in[8]:14 0.0003567
45 chany_top_in[17]:25 chany_bottom_in[8]:13 0.0002316654
46 chany_top_in[17]:24 chany_bottom_in[8]:14 0.0002316654
47 chany_top_in[17]:24 chany_bottom_in[8]:13 0.0003567
48 chany_top_in[17]:9 chany_bottom_in[16] 3.242907e-07
49 chany_top_in[17]:10 chany_bottom_in[16]:29 3.242907e-07
50 chany_top_in[17]:17 chany_bottom_in[16]:28 7.58606e-05
51 chany_top_in[17]:18 chany_bottom_in[16]:27 7.58606e-05
52 chany_top_in[17]:28 chany_bottom_in[16]:16 0.0002664041
53 chany_top_in[17]:28 chany_bottom_in[16]:23 7.085694e-05
54 chany_top_in[17]:29 chany_bottom_in[16]:9 0.0002664041
55 chany_top_in[17]:29 chany_bottom_in[16]:16 7.085694e-05
56 chany_top_in[17]:26 mux_top_track_24/sky130_fd_sc_hd__mux2_1_1_X[0]:6 0.0002379814
57 chany_top_in[17]:27 mux_top_track_24/sky130_fd_sc_hd__mux2_1_1_X[0]:7 0.0002379814
58 chany_top_in[17]:21 mux_top_track_32/sky130_fd_sc_hd__mux2_1_1_X[0]:5 2.533814e-05
59 chany_top_in[17]:23 mux_top_track_32/sky130_fd_sc_hd__mux2_1_1_X[0]:2 1.877167e-05
60 chany_top_in[17]:24 mux_top_track_32/sky130_fd_sc_hd__mux2_1_1_X[0]:4 2.533814e-05
61 chany_top_in[17]:22 mux_top_track_32/sky130_fd_sc_hd__mux2_1_1_X[0]:3 1.877167e-05
62 chany_top_in[17]:9 mux_bottom_track_25/sky130_fd_sc_hd__mux2_1_0_X[0]:4 7.478081e-05
63 chany_top_in[17]:10 mux_bottom_track_25/sky130_fd_sc_hd__mux2_1_0_X[0]:3 7.478081e-05

*RES
0 chany_top_in[17] chany_top_in[17]:32 0.001225446
1 chany_top_in[17]:7 ropt_mt_inst_777:A 0.152
2 chany_top_in[17]:8 chany_top_in[17]:7 0.001569197
3 chany_top_in[17]:9 chany_top_in[17]:8 0.0045
4 chany_top_in[17]:11 chany_top_in[17]:10 0.0045
5 chany_top_in[17]:10 chany_top_in[17]:9 0.01874107
6 chany_top_in[17]:12 chany_top_in[17]:11 0.006151786
7 chany_top_in[17]:13 chany_top_in[17]:12 0.0045
8 chany_top_in[17]:15 chany_top_in[17]:14 0.0045
9 chany_top_in[17]:14 chany_top_in[17]:13 0.0005267857
10 chany_top_in[17]:16 chany_top_in[17]:15 0.0015625
11 chany_top_in[17]:17 chany_top_in[17]:16 0.0045
12 chany_top_in[17]:18 chany_top_in[17]:17 0.01690848
13 chany_top_in[17]:19 chany_top_in[17]:18 0.00341
14 chany_top_in[17]:21 chany_top_in[17]:20 0.00341
15 chany_top_in[17]:21 chany_top_in[17]:6 0.000125
16 chany_top_in[17]:20 chany_top_in[17]:19 0.00215965
17 chany_top_in[17]:25 chany_top_in[17]:24 0.007537947
18 chany_top_in[17]:26 chany_top_in[17]:25 0.00341
19 chany_top_in[17]:27 chany_top_in[17]:26 0.002301825
20 chany_top_in[17]:28 chany_top_in[17]:27 0.00341
21 chany_top_in[17]:30 chany_top_in[17]:29 0.00341
22 chany_top_in[17]:29 chany_top_in[17]:28 0.006496183
23 chany_top_in[17]:32 chany_top_in[17]:31 0.00341
24 chany_top_in[17]:31 chany_top_in[17]:30 0.000356025
25 chany_top_in[17]:5 chany_top_in[17]:4 0.0008995536
26 chany_top_in[17]:6 chany_top_in[17]:5 0.0045
27 chany_top_in[17]:4 mux_bottom_track_17\/mux_l1_in_0_:A0 0.152
28 chany_top_in[17]:23 chany_top_in[17]:22 0.006171875
29 chany_top_in[17]:24 chany_top_in[17]:23 0.0045
30 chany_top_in[17]:24 chany_top_in[17]:21 0.02939509
31 chany_top_in[17]:22 mux_left_track_23\/mux_l1_in_0_:A1 0.152

*END

*D_NET chany_top_in[18] 0.02110955 //LENGTH 163.305 LUMPCC 0.00343054 DR

*CONN
*P chany_top_in[18] I *L 0.29796 *C 84.640 129.270
*I mux_left_track_25\/mux_l1_in_0_:A1 I *L 0.00198 *C 59.245 66.980
*I FTB_18__17:A I *L 0.001776 *C 77.740 9.520
*I mux_bottom_track_25\/mux_l1_in_0_:A0 I *L 0.001631 *C 80.330 11.560
*N chany_top_in[18]:4 *C 80.293 11.560
*N chany_top_in[18]:5 *C 76.405 11.560
*N chany_top_in[18]:6 *C 76.360 11.560
*N chany_top_in[18]:7 *C 77.703 9.520
*N chany_top_in[18]:8 *C 75.485 9.520
*N chany_top_in[18]:9 *C 75.440 9.565
*N chany_top_in[18]:10 *C 75.440 11.560
*N chany_top_in[18]:11 *C 75.440 11.568
*N chany_top_in[18]:12 *C 75.440 12.240
*N chany_top_in[18]:13 *C 69.020 12.240
*N chany_top_in[18]:14 *C 69.000 12.248
*N chany_top_in[18]:15 *C 59.245 66.980
*N chany_top_in[18]:16 *C 59.340 66.980
*N chany_top_in[18]:17 *C 59.340 66.640
*N chany_top_in[18]:18 *C 59.348 66.640
*N chany_top_in[18]:19 *C 68.980 66.640
*N chany_top_in[18]:20 *C 69.000 66.640
*N chany_top_in[18]:21 *C 69.000 113.553
*N chany_top_in[18]:22 *C 69.020 113.560
*N chany_top_in[18]:23 *C 85.093 113.560
*N chany_top_in[18]:24 *C 85.100 113.618
*N chany_top_in[18]:25 *C 85.100 127.160
*N chany_top_in[18]:26 *C 84.640 127.160

*CAP
0 chany_top_in[18] 0.0001210681
1 mux_left_track_25\/mux_l1_in_0_:A1 1e-06
2 FTB_18__17:A 1e-06
3 mux_bottom_track_25\/mux_l1_in_0_:A0 1e-06
4 chany_top_in[18]:4 0.0002960907
5 chany_top_in[18]:5 0.0002960907
6 chany_top_in[18]:6 9.031317e-05
7 chany_top_in[18]:7 0.0002036659
8 chany_top_in[18]:8 0.0002036659
9 chany_top_in[18]:9 0.0001420859
10 chany_top_in[18]:10 0.0002003619
11 chany_top_in[18]:11 5.885844e-05
12 chany_top_in[18]:12 0.0004975069
13 chany_top_in[18]:13 0.0004386485
14 chany_top_in[18]:14 0.002423968
15 chany_top_in[18]:15 2.819387e-05
16 chany_top_in[18]:16 5.720816e-05
17 chany_top_in[18]:17 6.119693e-05
18 chany_top_in[18]:18 0.0007572484
19 chany_top_in[18]:19 0.0007572484
20 chany_top_in[18]:20 0.00485994
21 chany_top_in[18]:21 0.002435972
22 chany_top_in[18]:22 0.001007621
23 chany_top_in[18]:23 0.001007621
24 chany_top_in[18]:24 0.0008355172
25 chany_top_in[18]:25 0.0008051873
26 chany_top_in[18]:26 9.073826e-05
27 chany_top_in[18]:21 chany_top_in[10]:25 0.0001693337
28 chany_top_in[18]:21 chany_top_in[10]:26 0.00015966
29 chany_top_in[18]:20 chany_top_in[10]:24 0.0001693337
30 chany_top_in[18]:20 chany_top_in[10]:25 0.00015966
31 chany_top_in[18]:21 chany_bottom_in[17]:26 0.0001798218
32 chany_top_in[18]:24 chany_bottom_in[17]:7 6.60352e-06
33 chany_top_in[18]:20 chany_bottom_in[17]:26 0.000284983
34 chany_top_in[18]:20 chany_bottom_in[17]:27 0.001036488
35 chany_top_in[18]:14 chany_bottom_in[17]:28 0.0008566664
36 chany_top_in[18]:14 chany_bottom_in[17]:27 0.000284983
37 chany_top_in[18]:25 chany_bottom_in[17]:6 6.60352e-06
38 chany_top_in[18]:26 ropt_net_148:5 5.820139e-05
39 chany_top_in[18]:25 ropt_net_148:6 5.820139e-05

*RES
0 chany_top_in[18] chany_top_in[18]:26 0.001883929
1 chany_top_in[18]:4 mux_bottom_track_25\/mux_l1_in_0_:A0 0.152
2 chany_top_in[18]:5 chany_top_in[18]:4 0.003470982
3 chany_top_in[18]:6 chany_top_in[18]:5 0.0045
4 chany_top_in[18]:8 chany_top_in[18]:7 0.001979911
5 chany_top_in[18]:9 chany_top_in[18]:8 0.0045
6 chany_top_in[18]:7 FTB_18__17:A 0.152
7 chany_top_in[18]:22 chany_top_in[18]:21 0.00341
8 chany_top_in[18]:21 chany_top_in[18]:20 0.007349624
9 chany_top_in[18]:24 chany_top_in[18]:23 0.00341
10 chany_top_in[18]:23 chany_top_in[18]:22 0.002518025
11 chany_top_in[18]:19 chany_top_in[18]:18 0.001509092
12 chany_top_in[18]:20 chany_top_in[18]:19 0.00341
13 chany_top_in[18]:20 chany_top_in[18]:14 0.008521492
14 chany_top_in[18]:17 chany_top_in[18]:16 0.0001634615
15 chany_top_in[18]:18 chany_top_in[18]:17 0.00341
16 chany_top_in[18]:15 mux_left_track_25\/mux_l1_in_0_:A1 0.152
17 chany_top_in[18]:16 chany_top_in[18]:15 0.0045
18 chany_top_in[18]:10 chany_top_in[18]:9 0.00178125
19 chany_top_in[18]:10 chany_top_in[18]:6 0.0008214286
20 chany_top_in[18]:11 chany_top_in[18]:10 0.00341
21 chany_top_in[18]:13 chany_top_in[18]:12 0.0010058
22 chany_top_in[18]:14 chany_top_in[18]:13 0.00341
23 chany_top_in[18]:26 chany_top_in[18]:25 0.0004107143
24 chany_top_in[18]:25 chany_top_in[18]:24 0.01209152
25 chany_top_in[18]:12 chany_top_in[18]:11 0.0001053583

*END

*D_NET chany_bottom_in[2] 0.02622633 //LENGTH 199.630 LUMPCC 0.005867919 DR

*CONN
*P chany_bottom_in[2] I *L 0.29796 *C 81.420 1.290
*I mux_top_track_0\/mux_l1_in_2_:A0 I *L 0.001631 *C 63.310 118.660
*I FTB_20__19:A I *L 0.001776 *C 69.000 123.760
*I mux_left_track_1\/mux_l1_in_1_:A1 I *L 0.00198 *C 27.505 88.740
*N chany_bottom_in[2]:4 *C 80.250 31.960
*N chany_bottom_in[2]:5 *C 27.505 88.740
*N chany_bottom_in[2]:6 *C 27.600 88.785
*N chany_bottom_in[2]:7 *C 27.600 91.743
*N chany_bottom_in[2]:8 *C 27.608 91.800
*N chany_bottom_in[2]:9 *C 69.038 123.760
*N chany_bottom_in[2]:10 *C 69.415 123.760
*N chany_bottom_in[2]:11 *C 69.460 123.715
*N chany_bottom_in[2]:12 *C 69.460 121.778
*N chany_bottom_in[2]:13 *C 69.453 121.720
*N chany_bottom_in[2]:14 *C 63.028 121.720
*N chany_bottom_in[2]:15 *C 63.020 121.663
*N chany_bottom_in[2]:16 *C 63.310 118.660
*N chany_bottom_in[2]:17 *C 63.020 118.660
*N chany_bottom_in[2]:18 *C 63.020 118.660
*N chany_bottom_in[2]:19 *C 63.020 117.018
*N chany_bottom_in[2]:20 *C 63.013 116.960
*N chany_bottom_in[2]:21 *C 55.220 116.960
*N chany_bottom_in[2]:22 *C 55.200 116.953
*N chany_bottom_in[2]:23 *C 55.200 91.808
*N chany_bottom_in[2]:24 *C 55.200 91.800
*N chany_bottom_in[2]:25 *C 57.020 91.800
*N chany_bottom_in[2]:26 *C 57.040 91.793
*N chany_bottom_in[2]:27 *C 57.040 90.448
*N chany_bottom_in[2]:28 *C 57.060 90.440
*N chany_bottom_in[2]:29 *C 80.940 90.440
*N chany_bottom_in[2]:30 *C 80.960 90.433
*N chany_bottom_in[2]:31 *C 80.960 81.795
*N chany_bottom_in[2]:32 *C 80.960 31.968
*N chany_bottom_in[2]:33 *C 80.958 31.960
*N chany_bottom_in[2]:34 *C 80.960 31.902
*N chany_bottom_in[2]:35 *C 80.960 21.080
*N chany_bottom_in[2]:36 *C 81.420 21.080

*CAP
0 chany_bottom_in[2] 0.001011703
1 mux_top_track_0\/mux_l1_in_2_:A0 1e-06
2 FTB_20__19:A 1e-06
3 mux_left_track_1\/mux_l1_in_1_:A1 1e-06
4 chany_bottom_in[2]:4 9.224984e-05
5 chany_bottom_in[2]:5 2.976825e-05
6 chany_bottom_in[2]:6 0.0002207976
7 chany_bottom_in[2]:7 0.0002207976
8 chany_bottom_in[2]:8 0.001720588
9 chany_bottom_in[2]:9 4.899499e-05
10 chany_bottom_in[2]:10 4.899499e-05
11 chany_bottom_in[2]:11 0.0001490177
12 chany_bottom_in[2]:12 0.0001490177
13 chany_bottom_in[2]:13 0.0005106615
14 chany_bottom_in[2]:14 0.0005106615
15 chany_bottom_in[2]:15 0.0001856381
16 chany_bottom_in[2]:16 5.483531e-05
17 chany_bottom_in[2]:17 5.517873e-05
18 chany_bottom_in[2]:18 0.0003207143
19 chany_bottom_in[2]:19 0.0001035247
20 chany_bottom_in[2]:20 0.0004113535
21 chany_bottom_in[2]:21 0.0004113535
22 chany_bottom_in[2]:22 0.001855147
23 chany_bottom_in[2]:23 0.001855147
24 chany_bottom_in[2]:24 0.001874505
25 chany_bottom_in[2]:25 0.0001539171
26 chany_bottom_in[2]:26 0.000160426
27 chany_bottom_in[2]:27 0.000160426
28 chany_bottom_in[2]:28 0.001194061
29 chany_bottom_in[2]:29 0.001194061
30 chany_bottom_in[2]:30 0.0003787107
31 chany_bottom_in[2]:31 0.001668617
32 chany_bottom_in[2]:32 0.001289906
33 chany_bottom_in[2]:33 9.224984e-05
34 chany_bottom_in[2]:34 0.000577332
35 chany_bottom_in[2]:35 0.0006053437
36 chany_bottom_in[2]:36 0.001039715
37 chany_bottom_in[2]:21 chany_top_in[11]:14 0.0004367247
38 chany_bottom_in[2]:20 chany_top_in[11]:15 0.0004367247
39 chany_bottom_in[2]:23 chany_top_in[15]:15 0.0002969114
40 chany_bottom_in[2]:23 chany_top_in[15]:16 0.0002569715
41 chany_bottom_in[2]:22 chany_top_in[15]:16 0.0002969114
42 chany_bottom_in[2]:22 chany_top_in[15]:17 0.0002569715
43 chany_bottom_in[2] chany_bottom_in[6]:41 1.543567e-05
44 chany_bottom_in[2]:15 chany_bottom_in[6]:21 1.970136e-08
45 chany_bottom_in[2]:18 chany_bottom_in[6]:22 1.970136e-08
46 chany_bottom_in[2]:32 chany_bottom_in[6]:41 0.0003874342
47 chany_bottom_in[2]:32 chany_bottom_in[6]:37 1.057868e-05
48 chany_bottom_in[2]:36 chany_bottom_in[6]:40 1.543567e-05
49 chany_bottom_in[2]:31 chany_bottom_in[6]:40 0.0003874342
50 chany_bottom_in[2]:31 chany_bottom_in[6]:36 1.057868e-05
51 chany_bottom_in[2]:28 chany_bottom_in[16]:15 6.505901e-05
52 chany_bottom_in[2]:29 chany_bottom_in[16]:14 6.505901e-05
53 chany_bottom_in[2]:30 chany_bottom_in[16]:16 3.175058e-05
54 chany_bottom_in[2]:32 chany_bottom_in[16]:25 0.0001798862
55 chany_bottom_in[2]:32 chany_bottom_in[16]:23 5.888338e-05
56 chany_bottom_in[2]:31 chany_bottom_in[16]:16 5.888338e-05
57 chany_bottom_in[2]:31 chany_bottom_in[16]:23 3.175058e-05
58 chany_bottom_in[2]:31 chany_bottom_in[16]:24 0.0001798862
59 chany_bottom_in[2]:24 prog_clk[0]:339 4.562285e-05
60 chany_bottom_in[2]:23 prog_clk[0]:306 1.527338e-05
61 chany_bottom_in[2]:22 prog_clk[0]:311 1.527338e-05
62 chany_bottom_in[2]:8 prog_clk[0]:340 4.562285e-05
63 chany_bottom_in[2]:28 prog_clk[0]:443 0.0001219124
64 chany_bottom_in[2]:28 prog_clk[0]:421 0.0003165239
65 chany_bottom_in[2]:29 prog_clk[0]:442 0.0001219124
66 chany_bottom_in[2]:29 prog_clk[0]:420 0.0003165239
67 chany_bottom_in[2]:32 prog_clk[0]:103 7.72473e-06
68 chany_bottom_in[2]:31 prog_clk[0]:108 7.72473e-06
69 chany_bottom_in[2] chany_bottom_in[19]:10 5.470358e-06
70 chany_bottom_in[2]:32 chany_bottom_in[19]:10 0.0003357835
71 chany_bottom_in[2]:36 chany_bottom_in[19]:9 5.470358e-06
72 chany_bottom_in[2]:31 chany_bottom_in[19]:9 0.0003357835
73 chany_bottom_in[2]:24 mux_tree_tapbuf_size7_1_sram[0]:32 9.923951e-05
74 chany_bottom_in[2]:24 mux_tree_tapbuf_size7_1_sram[0]:31 1.014905e-05
75 chany_bottom_in[2]:8 mux_tree_tapbuf_size7_1_sram[0]:31 9.923951e-05
76 chany_bottom_in[2]:25 mux_tree_tapbuf_size7_1_sram[0]:32 1.014905e-05
77 chany_bottom_in[2]:28 mux_tree_tapbuf_size7_1_sram[0]:35 6.055879e-06
78 chany_bottom_in[2]:28 mux_tree_tapbuf_size7_1_sram[0]:31 0.0002305485
79 chany_bottom_in[2]:29 mux_tree_tapbuf_size7_1_sram[0]:32 0.0002305485
80 chany_bottom_in[2]:29 mux_tree_tapbuf_size7_1_sram[0]:6 6.055879e-06

*RES
0 chany_bottom_in[2] chany_bottom_in[2]:36 0.01766964
1 chany_bottom_in[2]:24 chany_bottom_in[2]:23 0.00341
2 chany_bottom_in[2]:24 chany_bottom_in[2]:8 0.004322825
3 chany_bottom_in[2]:23 chany_bottom_in[2]:22 0.003939383
4 chany_bottom_in[2]:21 chany_bottom_in[2]:20 0.001220825
5 chany_bottom_in[2]:22 chany_bottom_in[2]:21 0.00341
6 chany_bottom_in[2]:19 chany_bottom_in[2]:18 0.001466518
7 chany_bottom_in[2]:20 chany_bottom_in[2]:19 0.00341
8 chany_bottom_in[2]:15 chany_bottom_in[2]:14 0.00341
9 chany_bottom_in[2]:14 chany_bottom_in[2]:13 0.001006583
10 chany_bottom_in[2]:12 chany_bottom_in[2]:11 0.001729911
11 chany_bottom_in[2]:13 chany_bottom_in[2]:12 0.00341
12 chany_bottom_in[2]:10 chany_bottom_in[2]:9 0.0003370536
13 chany_bottom_in[2]:11 chany_bottom_in[2]:10 0.0045
14 chany_bottom_in[2]:9 FTB_20__19:A 0.152
15 chany_bottom_in[2]:7 chany_bottom_in[2]:6 0.002640625
16 chany_bottom_in[2]:8 chany_bottom_in[2]:7 0.00341
17 chany_bottom_in[2]:5 mux_left_track_1\/mux_l1_in_1_:A1 0.152
18 chany_bottom_in[2]:6 chany_bottom_in[2]:5 0.0045
19 chany_bottom_in[2]:17 chany_bottom_in[2]:16 0.0001576087
20 chany_bottom_in[2]:18 chany_bottom_in[2]:17 0.0045
21 chany_bottom_in[2]:18 chany_bottom_in[2]:15 0.002680804
22 chany_bottom_in[2]:16 mux_top_track_0\/mux_l1_in_2_:A0 0.152
23 chany_bottom_in[2]:25 chany_bottom_in[2]:24 0.0002851333
24 chany_bottom_in[2]:26 chany_bottom_in[2]:25 0.00341
25 chany_bottom_in[2]:28 chany_bottom_in[2]:27 0.00341
26 chany_bottom_in[2]:27 chany_bottom_in[2]:26 0.0002107167
27 chany_bottom_in[2]:29 chany_bottom_in[2]:28 0.0037412
28 chany_bottom_in[2]:30 chany_bottom_in[2]:29 0.00341
29 chany_bottom_in[2]:33 chany_bottom_in[2]:32 0.00341
30 chany_bottom_in[2]:33 chany_bottom_in[2]:4 0.0001039141
31 chany_bottom_in[2]:32 chany_bottom_in[2]:31 0.007806308
32 chany_bottom_in[2]:34 chany_bottom_in[2]:33 0.00341
33 chany_bottom_in[2]:35 chany_bottom_in[2]:34 0.009662947
34 chany_bottom_in[2]:36 chany_bottom_in[2]:35 0.0004107143
35 chany_bottom_in[2]:31 chany_bottom_in[2]:30 0.001353208

*END

*D_NET chany_bottom_in[6] 0.02463379 //LENGTH 207.925 LUMPCC 0.00336538 DR

*CONN
*P chany_bottom_in[6] I *L 0.29796 *C 94.300 1.325
*I ropt_mt_inst_769:A I *L 0.001767 *C 47.380 126.480
*I mux_top_track_8\/mux_l2_in_1_:A1 I *L 0.00198 *C 80.500 94.180
*I mux_left_track_7\/mux_l1_in_1_:A1 I *L 0.00198 *C 60.625 58.140
*N chany_bottom_in[6]:4 *C 60.663 58.140
*N chany_bottom_in[6]:5 *C 61.180 58.140
*N chany_bottom_in[6]:6 *C 61.180 57.800
*N chany_bottom_in[6]:7 *C 77.235 57.800
*N chany_bottom_in[6]:8 *C 77.280 57.755
*N chany_bottom_in[6]:9 *C 77.280 56.498
*N chany_bottom_in[6]:10 *C 77.288 56.440
*N chany_bottom_in[6]:11 *C 80.500 94.180
*N chany_bottom_in[6]:12 *C 47.418 126.480
*N chany_bottom_in[6]:13 *C 47.795 126.480
*N chany_bottom_in[6]:14 *C 47.840 126.480
*N chany_bottom_in[6]:15 *C 47.848 126.480
*N chany_bottom_in[6]:16 *C 49.672 126.480
*N chany_bottom_in[6]:17 *C 49.680 126.538
*N chany_bottom_in[6]:18 *C 49.680 128.815
*N chany_bottom_in[6]:19 *C 49.725 128.860
*N chany_bottom_in[6]:20 *C 65.275 128.860
*N chany_bottom_in[6]:21 *C 65.320 128.815
*N chany_bottom_in[6]:22 *C 65.320 121.425
*N chany_bottom_in[6]:23 *C 65.365 121.380
*N chany_bottom_in[6]:24 *C 66.700 121.380
*N chany_bottom_in[6]:25 *C 66.700 121.040
*N chany_bottom_in[6]:26 *C 67.160 121.040
*N chany_bottom_in[6]:27 *C 67.160 120.700
*N chany_bottom_in[6]:28 *C 74.475 120.700
*N chany_bottom_in[6]:29 *C 74.520 120.655
*N chany_bottom_in[6]:30 *C 74.520 93.205
*N chany_bottom_in[6]:31 *C 74.565 93.160
*N chany_bottom_in[6]:32 *C 78.660 93.160
*N chany_bottom_in[6]:33 *C 78.660 93.840
*N chany_bottom_in[6]:34 *C 80.500 93.840
*N chany_bottom_in[6]:35 *C 81.835 93.840
*N chany_bottom_in[6]:36 *C 81.880 93.795
*N chany_bottom_in[6]:37 *C 81.880 56.498
*N chany_bottom_in[6]:38 *C 81.880 56.440
*N chany_bottom_in[6]:39 *C 83.700 56.440
*N chany_bottom_in[6]:40 *C 83.720 56.433
*N chany_bottom_in[6]:41 *C 83.720 2.048
*N chany_bottom_in[6]:42 *C 83.740 2.040
*N chany_bottom_in[6]:43 *C 94.293 2.040
*N chany_bottom_in[6]:44 *C 94.300 1.983

*CAP
0 chany_bottom_in[6] 5.423361e-05
1 ropt_mt_inst_769:A 1e-06
2 mux_top_track_8\/mux_l2_in_1_:A1 1e-06
3 mux_left_track_7\/mux_l1_in_1_:A1 1e-06
4 chany_bottom_in[6]:4 5.447234e-05
5 chany_bottom_in[6]:5 8.040522e-05
6 chany_bottom_in[6]:6 0.001062692
7 chany_bottom_in[6]:7 0.001036759
8 chany_bottom_in[6]:8 9.17678e-05
9 chany_bottom_in[6]:9 9.17678e-05
10 chany_bottom_in[6]:10 0.0003621444
11 chany_bottom_in[6]:11 5.26439e-05
12 chany_bottom_in[6]:12 5.89181e-05
13 chany_bottom_in[6]:13 5.89181e-05
14 chany_bottom_in[6]:14 3.461755e-05
15 chany_bottom_in[6]:15 0.0001928141
16 chany_bottom_in[6]:16 0.0001928141
17 chany_bottom_in[6]:17 0.0001706625
18 chany_bottom_in[6]:18 0.0001706625
19 chany_bottom_in[6]:19 0.0007639771
20 chany_bottom_in[6]:20 0.0007639771
21 chany_bottom_in[6]:21 0.0004171224
22 chany_bottom_in[6]:22 0.0004171224
23 chany_bottom_in[6]:23 8.071816e-05
24 chany_bottom_in[6]:24 0.0001043641
25 chany_bottom_in[6]:25 4.982585e-05
26 chany_bottom_in[6]:26 5.242721e-05
27 chany_bottom_in[6]:27 0.0005077862
28 chany_bottom_in[6]:28 0.0004815389
29 chany_bottom_in[6]:29 0.001011726
30 chany_bottom_in[6]:30 0.001011726
31 chany_bottom_in[6]:31 0.000277214