*SPEF "1481-1998"
*DESIGN "sb_2__0_"
*DATE "Tue Oct 27 11:35:06 2020"
*
*
*
*
*DIVIDER /
*DELIMITER :
*T_UNIT 1 NS
*C_UNIT 1 PF
*R_UNIT 1 KOHM
*L_UNIT 1 HENRY

// XY_UNIT 1 UM
// PARASITIC_TECH nominal at 25.000 degree

*PORTS
prog_clk[0] I *C 2.300 64.600
chany_top_in[0] I *C 65.780 80.920
chany_top_in[1] I *C 42.320 80.920
chany_top_in[2] I *C 56.120 80.920
chany_top_in[3] I *C 51.980 80.920
chany_top_in[4] I *C 49.680 80.920
chany_top_in[5] I *C 50.140 80.920
chany_top_in[6] I *C 55.200 80.920
chany_top_in[7] I *C 59.340 80.920
chany_top_in[8] I *C 56.120 80.920
chany_top_in[9] I *C 57.960 80.920
chany_top_in[10] I *C 53.360 80.920
chany_top_in[11] I *C 49.220 80.920
chany_top_in[12] I *C 47.840 80.920
chany_top_in[13] I *C 45.080 80.920
chany_top_in[14] I *C 54.280 80.920
chany_top_in[15] I *C 51.060 80.920
chany_top_in[16] I *C 51.520 80.920
chany_top_in[17] I *C 41.400 80.920
chany_top_in[18] I *C 39.560 80.920
chany_top_in[19] I *C 39.560 80.920
top_left_grid_pin_34_[0] I *C 23.000 80.920
top_left_grid_pin_35_[0] I *C 11.040 64.600
top_left_grid_pin_36_[0] I *C 22.540 80.920
top_left_grid_pin_37_[0] I *C 8.280 64.600
top_left_grid_pin_38_[0] I *C 21.620 80.920
top_left_grid_pin_39_[0] I *C 23.460 80.920
top_left_grid_pin_40_[0] I *C 20.700 80.920
top_left_grid_pin_41_[0] I *C 7.820 64.600
top_right_grid_pin_1_[0] I *C 80.500 80.920
chanx_left_in[0] I *C 0.690 4.080
chanx_left_in[1] I *C 0.690 52.360
chanx_left_in[2] I *C 0.690 10.880
chanx_left_in[3] I *C 0.690 53.720
chanx_left_in[4] I *C 0.690 36.040
chanx_left_in[5] I *C 0.690 12.240
chanx_left_in[6] I *C 0.690 14.960
chanx_left_in[7] I *C 0.690 57.800
chanx_left_in[8] I *C 0.690 13.600
chanx_left_in[9] I *C 0.690 56.440
chanx_left_in[10] I *C 0.690 55.080
chanx_left_in[11] I *C 0.690 59.160
chanx_left_in[12] I *C 0.690 37.400
chanx_left_in[13] I *C 0.690 38.760
chanx_left_in[14] I *C 0.690 5.440
chanx_left_in[15] I *C 0.690 47.600
chanx_left_in[16] I *C 0.690 32.640
chanx_left_in[17] I *C 0.690 17.680
chanx_left_in[18] I *C 0.690 16.320
chanx_left_in[19] I *C 0.690 44.880
left_top_grid_pin_42_[0] I *C 24.380 80.920
left_top_grid_pin_43_[0] I *C 5.520 64.600
left_top_grid_pin_44_[0] I *C 4.600 64.600
left_top_grid_pin_45_[0] I *C 6.440 64.600
left_top_grid_pin_46_[0] I *C 3.680 64.600
left_top_grid_pin_47_[0] I *C 6.440 64.600
left_top_grid_pin_48_[0] I *C 8.740 64.600
left_top_grid_pin_49_[0] I *C 4.600 64.600
left_bottom_grid_pin_1_[0] I *C 2.300 0.680
ccff_head[0] I *C 80.040 80.920
chany_top_out[0] O *C 66.700 80.920
chany_top_out[1] O *C 40.480 80.920
chany_top_out[2] O *C 64.860 80.920
chany_top_out[3] O *C 38.640 80.920
chany_top_out[4] O *C 69.460 80.920
chany_top_out[5] O *C 57.040 80.920
chany_top_out[6] O *C 68.540 80.920
chany_top_out[7] O *C 53.360 80.920
chany_top_out[8] O *C 67.620 80.920
chany_top_out[9] O *C 43.240 80.920
chany_top_out[10] O *C 70.380 80.920
chany_top_out[11] O *C 48.300 80.920
chany_top_out[12] O *C 71.300 80.920
chany_top_out[13] O *C 27.600 80.920
chany_top_out[14] O *C 60.260 80.920
chany_top_out[15] O *C 46.000 80.920
chany_top_out[16] O *C 61.180 80.920
chany_top_out[17] O *C 41.400 80.920
chany_top_out[18] O *C 37.720 80.920
chany_top_out[19] O *C 46.920 80.920
chanx_left_out[0] O *C 0.690 6.800
chanx_left_out[1] O *C 0.690 60.520
chanx_left_out[2] O *C 0.690 20.400
chanx_left_out[3] O *C 0.690 49.640
chanx_left_out[4] O *C 0.690 26.520
chanx_left_out[5] O *C 0.690 61.880
chanx_left_out[6] O *C 0.690 28.560
chanx_left_out[7] O *C 0.690 42.840
chanx_left_out[8] O *C 0.690 21.760
chanx_left_out[9] O *C 0.690 40.120
chanx_left_out[10] O *C 0.690 24.480
chanx_left_out[11] O *C 0.690 41.480
chanx_left_out[12] O *C 0.690 31.280
chanx_left_out[13] O *C 0.690 51.000
chanx_left_out[14] O *C 0.690 23.120
chanx_left_out[15] O *C 0.690 46.240
chanx_left_out[16] O *C 0.690 8.160
chanx_left_out[17] O *C 0.690 34.680
chanx_left_out[18] O *C 0.690 19.040
chanx_left_out[19] O *C 0.690 29.920
ccff_tail[0] O *C 0.690 9.520
VDD I *C 42.320 40.800
VSS I *C 42.320 40.800

*D_NET chany_top_in[1] 0.01063276 //LENGTH 82.310 LUMPCC 0.002660187 DR

*CONN
*P chany_top_in[1] I *L 0.29796 *C 42.320 80.310
*I BUFT_P_63:A I *L 0.001766 *C 19.320 28.560
*N chany_top_in[1]:2 *C 21.370 71.400
*N chany_top_in[1]:3 *C 19.320 28.560
*N chany_top_in[1]:4 *C 19.320 27.880
*N chany_top_in[1]:5 *C 18.905 27.880
*N chany_top_in[1]:6 *C 18.860 27.925
*N chany_top_in[1]:7 *C 18.860 33.275
*N chany_top_in[1]:8 *C 18.905 33.320
*N chany_top_in[1]:9 *C 19.245 33.320
*N chany_top_in[1]:10 *C 19.245 34.000
*N chany_top_in[1]:11 *C 18.905 34.000
*N chany_top_in[1]:12 *C 18.860 34.045
*N chany_top_in[1]:13 *C 18.860 44.823
*N chany_top_in[1]:14 *C 18.867 44.880
*N chany_top_in[1]:15 *C 22.060 44.880
*N chany_top_in[1]:16 *C 22.080 44.888
*N chany_top_in[1]:17 *C 22.080 71.392
*N chany_top_in[1]:18 *C 22.078 71.400
*N chany_top_in[1]:19 *C 22.080 71.400
*N chany_top_in[1]:20 *C 22.125 71.400
*N chany_top_in[1]:21 *C 23.000 71.400
*N chany_top_in[1]:22 *C 23.000 71.740
*N chany_top_in[1]:23 *C 39.100 71.740
*N chany_top_in[1]:24 *C 39.100 72.080
*N chany_top_in[1]:25 *C 42.275 72.080
*N chany_top_in[1]:26 *C 42.320 72.125

*CAP
0 chany_top_in[1] 0.0003963923
1 BUFT_P_63:A 1e-06
2 chany_top_in[1]:2 7.667286e-05
3 chany_top_in[1]:3 8.560908e-05
4 chany_top_in[1]:4 0.0001004629
5 chany_top_in[1]:5 4.851499e-05
6 chany_top_in[1]:6 0.0002917077
7 chany_top_in[1]:7 0.0002917077
8 chany_top_in[1]:8 3.513112e-05
9 chany_top_in[1]:9 7.976508e-05
10 chany_top_in[1]:10 8.674813e-05
11 chany_top_in[1]:11 4.211418e-05
12 chany_top_in[1]:12 0.0006125902
13 chany_top_in[1]:13 0.0006125902
14 chany_top_in[1]:14 0.000267911
15 chany_top_in[1]:15 0.000267911
16 chany_top_in[1]:16 0.0009179959
17 chany_top_in[1]:17 0.0009179959
18 chany_top_in[1]:18 7.667286e-05
19 chany_top_in[1]:19 3.153307e-05
20 chany_top_in[1]:20 7.827138e-05
21 chany_top_in[1]:21 0.00010433
22 chany_top_in[1]:22 0.000947391
23 chany_top_in[1]:23 0.0009459296
24 chany_top_in[1]:24 0.0001419166
25 chany_top_in[1]:25 0.0001173195
26 chany_top_in[1]:26 0.0003963923
27 chany_top_in[1]:17 chanx_left_in[6]:9 0.000393737
28 chany_top_in[1]:16 chanx_left_in[6]:10 0.000393737
29 chany_top_in[1]:7 chanx_left_in[6]:9 5.128707e-06
30 chany_top_in[1]:6 chanx_left_in[6]:10 5.128707e-06
31 chany_top_in[1]:17 left_top_grid_pin_42_[0]:23 0.0005035503
32 chany_top_in[1]:16 left_top_grid_pin_42_[0]:22 0.0005035503
33 chany_top_in[1]:22 mux_tree_tapbuf_size2_8_sram[1]:4 6.043982e-05
34 chany_top_in[1]:22 mux_tree_tapbuf_size2_8_sram[1]:5 5.691812e-05
35 chany_top_in[1]:23 mux_tree_tapbuf_size2_8_sram[1]:5 6.043982e-05
36 chany_top_in[1]:23 mux_tree_tapbuf_size2_8_sram[1]:3 5.691812e-05
37 chany_top_in[1]:25 mux_tree_tapbuf_size2_mem_8_ccff_tail[0]:7 5.347586e-05
38 chany_top_in[1]:24 mux_tree_tapbuf_size2_mem_8_ccff_tail[0]:6 5.347586e-05
39 chany_top_in[1]:25 mux_top_track_28/sky130_fd_sc_hd__mux2_1_1_X[0]:7 0.0001272621
40 chany_top_in[1]:24 mux_top_track_28/sky130_fd_sc_hd__mux2_1_1_X[0]:8 0.0001272621
41 chany_top_in[1] mux_top_track_34/sky130_fd_sc_hd__mux2_1_1_X[0]:4 0.0001295818
42 chany_top_in[1]:26 mux_top_track_34/sky130_fd_sc_hd__mux2_1_1_X[0]:5 0.0001295818

*RES
0 chany_top_in[1] chany_top_in[1]:26 0.007308036
1 chany_top_in[1]:25 chany_top_in[1]:24 0.002834822
2 chany_top_in[1]:26 chany_top_in[1]:25 0.0045
3 chany_top_in[1]:20 chany_top_in[1]:19 0.0045
4 chany_top_in[1]:19 chany_top_in[1]:18 0.00341
5 chany_top_in[1]:18 chany_top_in[1]:17 0.00341
6 chany_top_in[1]:18 chany_top_in[1]:2 0.000103914
7 chany_top_in[1]:17 chany_top_in[1]:16 0.00415245
8 chany_top_in[1]:15 chany_top_in[1]:14 0.0005001583
9 chany_top_in[1]:16 chany_top_in[1]:15 0.00341
10 chany_top_in[1]:13 chany_top_in[1]:12 0.009622768
11 chany_top_in[1]:14 chany_top_in[1]:13 0.00341
12 chany_top_in[1]:11 chany_top_in[1]:10 0.0003035715
13 chany_top_in[1]:12 chany_top_in[1]:11 0.0045
14 chany_top_in[1]:8 chany_top_in[1]:7 0.0045
15 chany_top_in[1]:7 chany_top_in[1]:6 0.004776786
16 chany_top_in[1]:5 chany_top_in[1]:4 0.0003705357
17 chany_top_in[1]:6 chany_top_in[1]:5 0.0045
18 chany_top_in[1]:3 BUFT_P_63:A 0.152
19 chany_top_in[1]:4 chany_top_in[1]:3 0.0006071429
20 chany_top_in[1]:9 chany_top_in[1]:8 0.0003035715
21 chany_top_in[1]:10 chany_top_in[1]:9 0.0006071429
22 chany_top_in[1]:21 chany_top_in[1]:20 0.00078125
23 chany_top_in[1]:22 chany_top_in[1]:21 0.0003035714
24 chany_top_in[1]:23 chany_top_in[1]:22 0.014375
25 chany_top_in[1]:24 chany_top_in[1]:23 0.0003035715

*END

*D_NET optlc_net_79 0.01497768 //LENGTH 112.180 LUMPCC 0.0008471442 DR

*CONN
*I optlc_74:HI O *L 0 *C 51.980 63.920
*I mux_top_track_38\/mux_l2_in_0_:A0 I *L 0.001631 *C 43.415 53.380
*I mux_top_track_30\/mux_l2_in_0_:A0 I *L 0.001631 *C 47.670 49.980
*I mux_top_track_14\/mux_l2_in_0_:A0 I *L 0.001631 *C 51.695 48.280
*I mux_top_track_32\/mux_l2_in_0_:A0 I *L 0.001631 *C 62.850 55.420
*I mux_top_track_20\/mux_l2_in_0_:A0 I *L 0.001631 *C 64.575 60.520
*I mux_top_track_24\/mux_l1_in_1_:A0 I *L 0.001631 *C 69.175 64.260
*I mux_top_track_16\/mux_l2_in_0_:A0 I *L 0.001631 *C 70.095 60.520
*I mux_top_track_34\/mux_l2_in_0_:A0 I *L 0.001631 *C 43.530 59.160
*I mux_top_track_18\/mux_l2_in_0_:A0 I *L 0.001631 *C 45.370 64.260
*I mux_top_track_36\/mux_l2_in_0_:A0 I *L 0.001631 *C 34.330 65.960
*I mux_top_track_28\/mux_l2_in_0_:A0 I *L 0.001631 *C 34.675 71.400
*I mux_top_track_22\/mux_l2_in_0_:A0 I *L 0.001631 *C 50.430 75.480
*N optlc_net_79:13 *C 45.440 64.330
*N optlc_net_79:14 *C 50.393 75.480
*N optlc_net_79:15 *C 35.925 75.480
*N optlc_net_79:16 *C 35.880 75.435
*N optlc_net_79:17 *C 35.880 71.400
*N optlc_net_79:18 *C 34.712 71.400
*N optlc_net_79:19 *C 35.375 71.400
*N optlc_net_79:20 *C 35.420 71.400
*N optlc_net_79:21 *C 34.367 65.960
*N optlc_net_79:22 *C 35.375 65.960
*N optlc_net_79:23 *C 35.420 65.960
*N optlc_net_79:24 *C 35.420 64.645
*N optlc_net_79:25 *C 35.465 64.600
*N optlc_net_79:26 *C 45.370 64.600
*N optlc_net_79:27 *C 45.380 64.190
*N optlc_net_79:28 *C 45.370 64.260
*N optlc_net_79:29 *C 43.530 59.160
*N optlc_net_79:30 *C 70.058 60.520
*N optlc_net_79:31 *C 69.175 64.260
*N optlc_net_79:32 *C 69.000 64.260
*N optlc_net_79:33 *C 69.000 64.215
*N optlc_net_79:34 *C 69.000 60.565
*N optlc_net_79:35 *C 69.000 60.520
*N optlc_net_79:36 *C 64.575 60.520
*N optlc_net_79:37 *C 63.065 60.520
*N optlc_net_79:38 *C 63.020 60.475
*N optlc_net_79:39 *C 62.850 55.420
*N optlc_net_79:40 *C 63.020 55.420
*N optlc_net_79:41 *C 63.020 55.465
*N optlc_net_79:42 *C 63.020 56.440
*N optlc_net_79:43 *C 63.013 56.440
*N optlc_net_79:44 *C 51.528 56.440
*N optlc_net_79:45 *C 51.520 56.383
*N optlc_net_79:46 *C 51.695 48.280
*N optlc_net_79:47 *C 51.520 48.280
*N optlc_net_79:48 *C 51.520 48.325
*N optlc_net_79:49 *C 51.520 49.980
*N optlc_net_79:50 *C 51.475 49.980
*N optlc_net_79:51 *C 47.670 49.980
*N optlc_net_79:52 *C 43.285 49.980
*N optlc_net_79:53 *C 43.240 50.025
*N optlc_net_79:54 *C 43.415 53.380
*N optlc_net_79:55 *C 43.240 53.380
*N optlc_net_79:56 *C 43.240 53.380
*N optlc_net_79:57 *C 43.240 55.420
*N optlc_net_79:58 *C 43.700 55.420
*N optlc_net_79:59 *C 43.700 59.115
*N optlc_net_79:60 *C 43.745 59.160
*N optlc_net_79:61 *C 45.495 59.160
*N optlc_net_79:62 *C 45.540 59.205
*N optlc_net_79:63 *C 45.540 63.875
*N optlc_net_79:64 *C 45.540 63.920
*N optlc_net_79:65 *C 51.943 63.920

*CAP
0 optlc_74:HI 1e-06
1 mux_top_track_38\/mux_l2_in_0_:A0 1e-06
2 mux_top_track_30\/mux_l2_in_0_:A0 1e-06
3 mux_top_track_14\/mux_l2_in_0_:A0 1e-06
4 mux_top_track_32\/mux_l2_in_0_:A0 1e-06
5 mux_top_track_20\/mux_l2_in_0_:A0 1e-06
6 mux_top_track_24\/mux_l1_in_1_:A0 1e-06
7 mux_top_track_16\/mux_l2_in_0_:A0 1e-06
8 mux_top_track_34\/mux_l2_in_0_:A0 1e-06
9 mux_top_track_18\/mux_l2_in_0_:A0 1e-06
10 mux_top_track_36\/mux_l2_in_0_:A0 1e-06
11 mux_top_track_28\/mux_l2_in_0_:A0 1e-06
12 mux_top_track_22\/mux_l2_in_0_:A0 1e-06
13 optlc_net_79:13 7.995114e-06
14 optlc_net_79:14 0.0009985485
15 optlc_net_79:15 0.0009985485
16 optlc_net_79:16 0.0002458414
17 optlc_net_79:17 0.0002814617
18 optlc_net_79:18 8.754879e-05
19 optlc_net_79:19 8.754879e-05
20 optlc_net_79:20 0.0003508296
21 optlc_net_79:21 0.000104996
22 optlc_net_79:22 0.000104996
23 optlc_net_79:23 0.0004345687
24 optlc_net_79:24 8.646995e-05
25 optlc_net_79:25 0.0006789773
26 optlc_net_79:26 0.0007000634
27 optlc_net_79:27 7.482859e-06
28 optlc_net_79:28 8.826961e-05
29 optlc_net_79:29 5.886604e-05
30 optlc_net_79:30 6.809643e-05
31 optlc_net_79:31 5.634202e-05
32 optlc_net_79:32 5.894453e-05
33 optlc_net_79:33 0.0002267748
34 optlc_net_79:34 0.0002267748
35 optlc_net_79:35 0.0003394009
36 optlc_net_79:36 0.0003540831
37 optlc_net_79:37 8.373843e-05
38 optlc_net_79:38 0.0002091088
39 optlc_net_79:39 6.688265e-05
40 optlc_net_79:40 6.884431e-05
41 optlc_net_79:41 5.951338e-05
42 optlc_net_79:42 0.0003064918
43 optlc_net_79:43 0.0008925211
44 optlc_net_79:44 0.0008925211
45 optlc_net_79:45 0.000354206
46 optlc_net_79:46 4.808731e-05
47 optlc_net_79:47 5.21983e-05
48 optlc_net_79:48 9.880943e-05
49 optlc_net_79:49 0.0004828762
50 optlc_net_79:50 0.0002362993
51 optlc_net_79:51 0.0005365141
52 optlc_net_79:52 0.000270009
53 optlc_net_79:53 0.0002088381
54 optlc_net_79:54 4.518877e-05
55 optlc_net_79:55 4.916132e-05
56 optlc_net_79:56 0.000358347
57 optlc_net_79:57 0.0001441236
58 optlc_net_79:58 0.0002100478
59 optlc_net_79:59 0.0001875256
60 optlc_net_79:60 0.0001900868
61 optlc_net_79:61 0.0001615364
62 optlc_net_79:62 0.0001980354
63 optlc_net_79:63 0.0001980354
64 optlc_net_79:64 0.0004406958
65 optlc_net_79:65 0.0004138667
66 optlc_net_79:37 mux_top_track_16/sky130_fd_sc_hd__mux2_1_0_X[0]:5 2.937808e-05
67 optlc_net_79:38 mux_top_track_16/sky130_fd_sc_hd__mux2_1_0_X[0]:6 9.899959e-05
68 optlc_net_79:42 mux_top_track_16/sky130_fd_sc_hd__mux2_1_0_X[0]:6 2.630464e-05
69 optlc_net_79:42 mux_top_track_16/sky130_fd_sc_hd__mux2_1_0_X[0]:7 9.899959e-05
70 optlc_net_79:41 mux_top_track_16/sky130_fd_sc_hd__mux2_1_0_X[0]:7 2.630464e-05
71 optlc_net_79:36 mux_top_track_16/sky130_fd_sc_hd__mux2_1_0_X[0]:5 2.972068e-05
72 optlc_net_79:36 mux_top_track_16/sky130_fd_sc_hd__mux2_1_0_X[0]:4 2.937808e-05
73 optlc_net_79:36 mux_top_track_16/sky130_fd_sc_hd__mux2_1_0_X[0]:3 1.723267e-05
74 optlc_net_79:35 mux_top_track_16/sky130_fd_sc_hd__mux2_1_0_X[0]:2 1.723267e-05
75 optlc_net_79:35 mux_top_track_16/sky130_fd_sc_hd__mux2_1_0_X[0]:4 2.972068e-05
76 optlc_net_79:35 mux_top_track_16/sky130_fd_sc_hd__mux2_1_0_X[0]:3 1.039655e-05
77 optlc_net_79:30 mux_top_track_16/sky130_fd_sc_hd__mux2_1_0_X[0]:2 1.039655e-05
78 optlc_net_79:59 mux_top_track_34/sky130_fd_sc_hd__mux2_1_0_X[0]:3 5.102346e-05
79 optlc_net_79:57 mux_top_track_34/sky130_fd_sc_hd__mux2_1_0_X[0]:6 9.776812e-06
80 optlc_net_79:58 mux_top_track_34/sky130_fd_sc_hd__mux2_1_0_X[0]:5 9.776812e-06
81 optlc_net_79:58 mux_top_track_34/sky130_fd_sc_hd__mux2_1_0_X[0]:4 5.102346e-05
82 optlc_net_79:59 mux_top_track_38/sky130_fd_sc_hd__mux2_1_1_X[0]:5 1.429189e-05
83 optlc_net_79:62 mux_top_track_38/sky130_fd_sc_hd__mux2_1_1_X[0]:6 0.0001341161
84 optlc_net_79:63 mux_top_track_38/sky130_fd_sc_hd__mux2_1_1_X[0]:5 0.0001341161
85 optlc_net_79:56 mux_top_track_38/sky130_fd_sc_hd__mux2_1_1_X[0]:6 2.331632e-06
86 optlc_net_79:57 mux_top_track_38/sky130_fd_sc_hd__mux2_1_1_X[0]:5 2.331632e-06
87 optlc_net_79:58 mux_top_track_38/sky130_fd_sc_hd__mux2_1_1_X[0]:6 1.429189e-05

*RES
0 optlc_74:HI optlc_net_79:65 0.152
1 optlc_net_79:52 optlc_net_79:51 0.003915179
2 optlc_net_79:53 optlc_net_79:52 0.0045
3 optlc_net_79:28 mux_top_track_18\/mux_l2_in_0_:A0 0.152
4 optlc_net_79:28 optlc_net_79:27 6.250001e-05
5 optlc_net_79:28 optlc_net_79:26 0.0003035715
6 optlc_net_79:28 optlc_net_79:13 3.804349e-05
7 optlc_net_79:25 optlc_net_79:24 0.0045
8 optlc_net_79:24 optlc_net_79:23 0.001174107
9 optlc_net_79:37 optlc_net_79:36 0.001348214
10 optlc_net_79:38 optlc_net_79:37 0.0045
11 optlc_net_79:42 optlc_net_79:41 0.0008705358
12 optlc_net_79:42 optlc_net_79:38 0.003602679
13 optlc_net_79:43 optlc_net_79:42 0.00341
14 optlc_net_79:45 optlc_net_79:44 0.00341
15 optlc_net_79:44 optlc_net_79:43 0.001799317
16 optlc_net_79:50 optlc_net_79:49 0.0045
17 optlc_net_79:49 optlc_net_79:48 0.001477679
18 optlc_net_79:49 optlc_net_79:45 0.005716518
19 optlc_net_79:60 optlc_net_79:59 0.0045
20 optlc_net_79:60 optlc_net_79:29 0.0001168478
21 optlc_net_79:59 optlc_net_79:58 0.003299107
22 optlc_net_79:19 optlc_net_79:18 0.0005915179
23 optlc_net_79:20 optlc_net_79:19 0.0045
24 optlc_net_79:20 optlc_net_79:17 0.0004107143
25 optlc_net_79:18 mux_top_track_28\/mux_l2_in_0_:A0 0.152
26 optlc_net_79:65 optlc_net_79:64 0.005716518
27 optlc_net_79:61 optlc_net_79:60 0.0015625
28 optlc_net_79:62 optlc_net_79:61 0.0045
29 optlc_net_79:64 optlc_net_79:63 0.0045
30 optlc_net_79:64 optlc_net_79:28 0.0001847826
31 optlc_net_79:63 optlc_net_79:62 0.004169643
32 optlc_net_79:15 optlc_net_79:14 0.01291741
33 optlc_net_79:16 optlc_net_79:15 0.0045
34 optlc_net_79:14 mux_top_track_22\/mux_l2_in_0_:A0 0.152
35 optlc_net_79:29 mux_top_track_34\/mux_l2_in_0_:A0 0.152
36 optlc_net_79:40 optlc_net_79:39 9.239131e-05
37 optlc_net_79:41 optlc_net_79:40 0.0045
38 optlc_net_79:39 mux_top_track_32\/mux_l2_in_0_:A0 0.152
39 optlc_net_79:51 mux_top_track_30\/mux_l2_in_0_:A0 0.152
40 optlc_net_79:51 optlc_net_79:50 0.003397322
41 optlc_net_79:22 optlc_net_79:21 0.0008995536
42 optlc_net_79:23 optlc_net_79:22 0.0045
43 optlc_net_79:23 optlc_net_79:20 0.004857143
44 optlc_net_79:21 mux_top_track_36\/mux_l2_in_0_:A0 0.152
45 optlc_net_79:36 mux_top_track_20\/mux_l2_in_0_:A0 0.152
46 optlc_net_79:36 optlc_net_79:35 0.003950893
47 optlc_net_79:35 optlc_net_79:34 0.0045
48 optlc_net_79:35 optlc_net_79:30 0.0009441964
49 optlc_net_79:34 optlc_net_79:33 0.003258929
50 optlc_net_79:32 optlc_net_79:31 9.510871e-05
51 optlc_net_79:33 optlc_net_79:32 0.0045
52 optlc_net_79:31 mux_top_track_24\/mux_l1_in_1_:A0 0.152
53 optlc_net_79:30 mux_top_track_16\/mux_l2_in_0_:A0 0.152
54 optlc_net_79:47 optlc_net_79:46 9.51087e-05
55 optlc_net_79:48 optlc_net_79:47 0.0045
56 optlc_net_79:46 mux_top_track_14\/mux_l2_in_0_:A0 0.152
57 optlc_net_79:55 optlc_net_79:54 9.51087e-05
58 optlc_net_79:56 optlc_net_79:55 0.0045
59 optlc_net_79:56 optlc_net_79:53 0.002995536
60 optlc_net_79:54 mux_top_track_38\/mux_l2_in_0_:A0 0.152
61 optlc_net_79:26 optlc_net_79:25 0.008843751
62 optlc_net_79:17 optlc_net_79:16 0.003602679
63 optlc_net_79:57 optlc_net_79:56 0.001821429
64 optlc_net_79:58 optlc_net_79:57 0.0004107143

*END

*D_NET mux_top_track_22/sky130_fd_sc_hd__mux2_1_1_X[0] 0.0005961665 //LENGTH 3.765 LUMPCC 0.0001209175 DR

*CONN
*I mux_top_track_22\/mux_l2_in_0_:X O *L 0 *C 48.475 75.140
*I mux_top_track_22\/sky130_fd_sc_hd__buf_4_0_:A I *L 0.002576 *C 48.120 77.370
*N mux_top_track_22/sky130_fd_sc_hd__mux2_1_1_X[0]:2 *C 48.120 77.370
*N mux_top_track_22/sky130_fd_sc_hd__mux2_1_1_X[0]:3 *C 47.885 77.267
*N mux_top_track_22/sky130_fd_sc_hd__mux2_1_1_X[0]:4 *C 47.840 77.135
*N mux_top_track_22/sky130_fd_sc_hd__mux2_1_1_X[0]:5 *C 47.840 75.185
*N mux_top_track_22/sky130_fd_sc_hd__mux2_1_1_X[0]:6 *C 47.885 75.140
*N mux_top_track_22/sky130_fd_sc_hd__mux2_1_1_X[0]:7 *C 48.438 75.140

*CAP
0 mux_top_track_22\/mux_l2_in_0_:X 1e-06
1 mux_top_track_22\/sky130_fd_sc_hd__buf_4_0_:A 1e-06
2 mux_top_track_22/sky130_fd_sc_hd__mux2_1_1_X[0]:2 7.264933e-05
3 mux_top_track_22/sky130_fd_sc_hd__mux2_1_1_X[0]:3 4.169251e-05
4 mux_top_track_22/sky130_fd_sc_hd__mux2_1_1_X[0]:4 9.335675e-05
5 mux_top_track_22/sky130_fd_sc_hd__mux2_1_1_X[0]:5 9.335675e-05
6 mux_top_track_22/sky130_fd_sc_hd__mux2_1_1_X[0]:6 8.609687e-05
7 mux_top_track_22/sky130_fd_sc_hd__mux2_1_1_X[0]:7 8.609687e-05
8 mux_top_track_22/sky130_fd_sc_hd__mux2_1_1_X[0]:4 chany_top_out[19]:3 6.045874e-05
9 mux_top_track_22/sky130_fd_sc_hd__mux2_1_1_X[0]:5 chany_top_out[19]:4 6.045874e-05

*RES
0 mux_top_track_22\/mux_l2_in_0_:X mux_top_track_22/sky130_fd_sc_hd__mux2_1_1_X[0]:7 0.152
1 mux_top_track_22/sky130_fd_sc_hd__mux2_1_1_X[0]:2 mux_top_track_22\/sky130_fd_sc_hd__buf_4_0_:A 0.152
2 mux_top_track_22/sky130_fd_sc_hd__mux2_1_1_X[0]:3 mux_top_track_22/sky130_fd_sc_hd__mux2_1_1_X[0]:2 0.0001366279
3 mux_top_track_22/sky130_fd_sc_hd__mux2_1_1_X[0]:4 mux_top_track_22/sky130_fd_sc_hd__mux2_1_1_X[0]:3 0.0045
4 mux_top_track_22/sky130_fd_sc_hd__mux2_1_1_X[0]:6 mux_top_track_22/sky130_fd_sc_hd__mux2_1_1_X[0]:5 0.0045
5 mux_top_track_22/sky130_fd_sc_hd__mux2_1_1_X[0]:5 mux_top_track_22/sky130_fd_sc_hd__mux2_1_1_X[0]:4 0.001741072
6 mux_top_track_22/sky130_fd_sc_hd__mux2_1_1_X[0]:7 mux_top_track_22/sky130_fd_sc_hd__mux2_1_1_X[0]:6 0.0004933036

*END

*D_NET mux_top_track_30/sky130_fd_sc_hd__mux2_1_1_X[0] 0.003598111 //LENGTH 28.500 LUMPCC 0.0007429858 DR

*CONN
*I mux_top_track_30\/mux_l2_in_0_:X O *L 0 *C 45.715 50.320
*I mux_top_track_30\/sky130_fd_sc_hd__buf_4_0_:A I *L 0.002576 *C 46.580 77.335
*N mux_top_track_30/sky130_fd_sc_hd__mux2_1_1_X[0]:2 *C 46.580 77.335
*N mux_top_track_30/sky130_fd_sc_hd__mux2_1_1_X[0]:3 *C 46.460 77.180
*N mux_top_track_30/sky130_fd_sc_hd__mux2_1_1_X[0]:4 *C 46.460 77.135
*N mux_top_track_30/sky130_fd_sc_hd__mux2_1_1_X[0]:5 *C 46.460 51.680
*N mux_top_track_30/sky130_fd_sc_hd__mux2_1_1_X[0]:6 *C 46.000 51.680
*N mux_top_track_30/sky130_fd_sc_hd__mux2_1_1_X[0]:7 *C 46.000 50.365
*N mux_top_track_30/sky130_fd_sc_hd__mux2_1_1_X[0]:8 *C 46.000 50.320
*N mux_top_track_30/sky130_fd_sc_hd__mux2_1_1_X[0]:9 *C 45.715 50.320

*CAP
0 mux_top_track_30\/mux_l2_in_0_:X 1e-06
1 mux_top_track_30\/sky130_fd_sc_hd__buf_4_0_:A 1e-06
2 mux_top_track_30/sky130_fd_sc_hd__mux2_1_1_X[0]:2 5.690667e-05
3 mux_top_track_30/sky130_fd_sc_hd__mux2_1_1_X[0]:3 6.007071e-05
4 mux_top_track_30/sky130_fd_sc_hd__mux2_1_1_X[0]:4 0.001181358
5 mux_top_track_30/sky130_fd_sc_hd__mux2_1_1_X[0]:5 0.001209971
6 mux_top_track_30/sky130_fd_sc_hd__mux2_1_1_X[0]:6 0.0001208135
7 mux_top_track_30/sky130_fd_sc_hd__mux2_1_1_X[0]:7 9.220024e-05
8 mux_top_track_30/sky130_fd_sc_hd__mux2_1_1_X[0]:8 6.62641e-05
9 mux_top_track_30/sky130_fd_sc_hd__mux2_1_1_X[0]:9 6.554072e-05
10 mux_top_track_30/sky130_fd_sc_hd__mux2_1_1_X[0]:4 prog_clk[0]:140 2.07123e-05
11 mux_top_track_30/sky130_fd_sc_hd__mux2_1_1_X[0]:4 prog_clk[0]:143 1.305425e-05
12 mux_top_track_30/sky130_fd_sc_hd__mux2_1_1_X[0]:4 prog_clk[0]:229 9.417345e-05
13 mux_top_track_30/sky130_fd_sc_hd__mux2_1_1_X[0]:4 prog_clk[0]:230 2.638998e-06
14 mux_top_track_30/sky130_fd_sc_hd__mux2_1_1_X[0]:4 prog_clk[0]:233 4.876409e-06
15 mux_top_track_30/sky130_fd_sc_hd__mux2_1_1_X[0]:4 prog_clk[0]:234 9.030002e-06
16 mux_top_track_30/sky130_fd_sc_hd__mux2_1_1_X[0]:5 prog_clk[0]:226 2.638998e-06
17 mux_top_track_30/sky130_fd_sc_hd__mux2_1_1_X[0]:5 prog_clk[0]:228 9.417345e-05
18 mux_top_track_30/sky130_fd_sc_hd__mux2_1_1_X[0]:5 prog_clk[0]:230 4.876409e-06
19 mux_top_track_30/sky130_fd_sc_hd__mux2_1_1_X[0]:5 prog_clk[0]:233 9.030002e-06
20 mux_top_track_30/sky130_fd_sc_hd__mux2_1_1_X[0]:5 prog_clk[0]:234 1.305425e-05
21 mux_top_track_30/sky130_fd_sc_hd__mux2_1_1_X[0]:5 prog_clk[0]:235 2.07123e-05
22 mux_top_track_30/sky130_fd_sc_hd__mux2_1_1_X[0]:4 mux_top_track_22/sky130_fd_sc_hd__mux2_1_0_X[0]:5 0.0002270075
23 mux_top_track_30/sky130_fd_sc_hd__mux2_1_1_X[0]:5 mux_top_track_22/sky130_fd_sc_hd__mux2_1_0_X[0]:6 0.0002270075

*RES
0 mux_top_track_30\/mux_l2_in_0_:X mux_top_track_30/sky130_fd_sc_hd__mux2_1_1_X[0]:9 0.152
1 mux_top_track_30/sky130_fd_sc_hd__mux2_1_1_X[0]:2 mux_top_track_30\/sky130_fd_sc_hd__buf_4_0_:A 0.152
2 mux_top_track_30/sky130_fd_sc_hd__mux2_1_1_X[0]:3 mux_top_track_30/sky130_fd_sc_hd__mux2_1_1_X[0]:2 6.521739e-05
3 mux_top_track_30/sky130_fd_sc_hd__mux2_1_1_X[0]:4 mux_top_track_30/sky130_fd_sc_hd__mux2_1_1_X[0]:3 0.0045
4 mux_top_track_30/sky130_fd_sc_hd__mux2_1_1_X[0]:8 mux_top_track_30/sky130_fd_sc_hd__mux2_1_1_X[0]:7 0.0045
5 mux_top_track_30/sky130_fd_sc_hd__mux2_1_1_X[0]:7 mux_top_track_30/sky130_fd_sc_hd__mux2_1_1_X[0]:6 0.001174107
6 mux_top_track_30/sky130_fd_sc_hd__mux2_1_1_X[0]:9 mux_top_track_30/sky130_fd_sc_hd__mux2_1_1_X[0]:8 0.0001548913
7 mux_top_track_30/sky130_fd_sc_hd__mux2_1_1_X[0]:6 mux_top_track_30/sky130_fd_sc_hd__mux2_1_1_X[0]:5 0.0004107143
8 mux_top_track_30/sky130_fd_sc_hd__mux2_1_1_X[0]:5 mux_top_track_30/sky130_fd_sc_hd__mux2_1_1_X[0]:4 0.02272768

*END

*D_NET mux_left_track_13/sky130_fd_sc_hd__mux2_1_0_X[0] 0.0004211459 //LENGTH 2.860 LUMPCC 0.0002089743 DR

*CONN
*I mux_left_track_13\/mux_l1_in_0_:X O *L 0 *C 18.115 61.540
*I mux_left_track_13\/mux_l2_in_0_:A1 I *L 0.00198 *C 15.545 61.540
*N mux_left_track_13/sky130_fd_sc_hd__mux2_1_0_X[0]:2 *C 15.583 61.540
*N mux_left_track_13/sky130_fd_sc_hd__mux2_1_0_X[0]:3 *C 18.078 61.540

*CAP
0 mux_left_track_13\/mux_l1_in_0_:X 1e-06
1 mux_left_track_13\/mux_l2_in_0_:A1 1e-06
2 mux_left_track_13/sky130_fd_sc_hd__mux2_1_0_X[0]:2 0.0001050858
3 mux_left_track_13/sky130_fd_sc_hd__mux2_1_0_X[0]:3 0.0001050858
4 mux_left_track_13/sky130_fd_sc_hd__mux2_1_0_X[0]:2 chany_top_in[13]:4 0.0001044871
5 mux_left_track_13/sky130_fd_sc_hd__mux2_1_0_X[0]:3 chany_top_in[13]:5 0.0001044871

*RES
0 mux_left_track_13\/mux_l1_in_0_:X mux_left_track_13/sky130_fd_sc_hd__mux2_1_0_X[0]:3 0.152
1 mux_left_track_13/sky130_fd_sc_hd__mux2_1_0_X[0]:2 mux_left_track_13\/mux_l2_in_0_:A1 0.152
2 mux_left_track_13/sky130_fd_sc_hd__mux2_1_0_X[0]:3 mux_left_track_13/sky130_fd_sc_hd__mux2_1_0_X[0]:2 0.002227679

*END

*D_NET mux_left_track_19/sky130_fd_sc_hd__mux2_1_1_X[0] 0.002808711 //LENGTH 20.070 LUMPCC 9.321951e-05 DR

*CONN
*I mux_left_track_19\/mux_l2_in_0_:X O *L 0 *C 21.795 39.780
*I mux_left_track_19\/sky130_fd_sc_hd__buf_4_0_:A I *L 0.002576 *C 5.240 42.340
*N mux_left_track_19/sky130_fd_sc_hd__mux2_1_1_X[0]:2 *C 5.277 42.227
*N mux_left_track_19/sky130_fd_sc_hd__mux2_1_1_X[0]:3 *C 8.235 42.160
*N mux_left_track_19/sky130_fd_sc_hd__mux2_1_1_X[0]:4 *C 8.280 42.115
*N mux_left_track_19/sky130_fd_sc_hd__mux2_1_1_X[0]:5 *C 8.280 40.165
*N mux_left_track_19/sky130_fd_sc_hd__mux2_1_1_X[0]:6 *C 8.325 40.120
*N mux_left_track_19/sky130_fd_sc_hd__mux2_1_1_X[0]:7 *C 16.100 40.120
*N mux_left_track_19/sky130_fd_sc_hd__mux2_1_1_X[0]:8 *C 16.100 39.780
*N mux_left_track_19/sky130_fd_sc_hd__mux2_1_1_X[0]:9 *C 21.758 39.780

*CAP
0 mux_left_track_19\/mux_l2_in_0_:X 1e-06
1 mux_left_track_19\/sky130_fd_sc_hd__buf_4_0_:A 1e-06
2 mux_left_track_19/sky130_fd_sc_hd__mux2_1_1_X[0]:2 0.0001977289
3 mux_left_track_19/sky130_fd_sc_hd__mux2_1_1_X[0]:3 0.0001977289
4 mux_left_track_19/sky130_fd_sc_hd__mux2_1_1_X[0]:4 0.0001542185
5 mux_left_track_19/sky130_fd_sc_hd__mux2_1_1_X[0]:5 0.0001542185
6 mux_left_track_19/sky130_fd_sc_hd__mux2_1_1_X[0]:6 0.0005554853
7 mux_left_track_19/sky130_fd_sc_hd__mux2_1_1_X[0]:7 0.0005805038
8 mux_left_track_19/sky130_fd_sc_hd__mux2_1_1_X[0]:8 0.0004493128
9 mux_left_track_19/sky130_fd_sc_hd__mux2_1_1_X[0]:9 0.0004242943
10 mux_left_track_19/sky130_fd_sc_hd__mux2_1_1_X[0]:2 mux_left_track_3/sky130_fd_sc_hd__mux2_1_3_X[0]:2 3.695269e-05
11 mux_left_track_19/sky130_fd_sc_hd__mux2_1_1_X[0]:3 mux_left_track_3/sky130_fd_sc_hd__mux2_1_3_X[0]:3 3.695269e-05
12 mux_left_track_19/sky130_fd_sc_hd__mux2_1_1_X[0]:4 mux_left_track_3/sky130_fd_sc_hd__mux2_1_3_X[0]:4 6.342889e-06
13 mux_left_track_19/sky130_fd_sc_hd__mux2_1_1_X[0]:6 mux_left_track_3/sky130_fd_sc_hd__mux2_1_3_X[0]:6 3.314177e-06
14 mux_left_track_19/sky130_fd_sc_hd__mux2_1_1_X[0]:5 mux_left_track_3/sky130_fd_sc_hd__mux2_1_3_X[0]:5 6.342889e-06
15 mux_left_track_19/sky130_fd_sc_hd__mux2_1_1_X[0]:7 mux_left_track_3/sky130_fd_sc_hd__mux2_1_3_X[0]:7 3.314177e-06

*RES
0 mux_left_track_19\/mux_l2_in_0_:X mux_left_track_19/sky130_fd_sc_hd__mux2_1_1_X[0]:9 0.152
1 mux_left_track_19/sky130_fd_sc_hd__mux2_1_1_X[0]:2 mux_left_track_19\/sky130_fd_sc_hd__buf_4_0_:A 0.152
2 mux_left_track_19/sky130_fd_sc_hd__mux2_1_1_X[0]:3 mux_left_track_19/sky130_fd_sc_hd__mux2_1_1_X[0]:2 0.002640625
3 mux_left_track_19/sky130_fd_sc_hd__mux2_1_1_X[0]:4 mux_left_track_19/sky130_fd_sc_hd__mux2_1_1_X[0]:3 0.0045
4 mux_left_track_19/sky130_fd_sc_hd__mux2_1_1_X[0]:6 mux_left_track_19/sky130_fd_sc_hd__mux2_1_1_X[0]:5 0.0045
5 mux_left_track_19/sky130_fd_sc_hd__mux2_1_1_X[0]:5 mux_left_track_19/sky130_fd_sc_hd__mux2_1_1_X[0]:4 0.001741071
6 mux_left_track_19/sky130_fd_sc_hd__mux2_1_1_X[0]:9 mux_left_track_19/sky130_fd_sc_hd__mux2_1_1_X[0]:8 0.005051339
7 mux_left_track_19/sky130_fd_sc_hd__mux2_1_1_X[0]:7 mux_left_track_19/sky130_fd_sc_hd__mux2_1_1_X[0]:6 0.006941965
8 mux_left_track_19/sky130_fd_sc_hd__mux2_1_1_X[0]:8 mux_left_track_19/sky130_fd_sc_hd__mux2_1_1_X[0]:7 0.0003035715

*END

*D_NET chanx_left_out[14] 0.0008424203 //LENGTH 5.765 LUMPCC 0 DR

*CONN
*I ropt_mt_inst_676:X O *L 0 *C 4.140 25.160
*P chanx_left_out[14] O *L 0.7423 *C 1.230 23.120
*N chanx_left_out[14]:2 *C 2.292 23.120
*N chanx_left_out[14]:3 *C 2.300 23.178
*N chanx_left_out[14]:4 *C 2.300 25.115
*N chanx_left_out[14]:5 *C 2.345 25.160
*N chanx_left_out[14]:6 *C 4.103 25.160

*CAP
0 ropt_mt_inst_676:X 1e-06
1 chanx_left_out[14] 0.0001090001
2 chanx_left_out[14]:2 0.0001090001
3 chanx_left_out[14]:3 0.0001729054
4 chanx_left_out[14]:4 0.0001729054
5 chanx_left_out[14]:5 0.0001388046
6 chanx_left_out[14]:6 0.0001388046

*RES
0 ropt_mt_inst_676:X chanx_left_out[14]:6 0.152
1 chanx_left_out[14]:6 chanx_left_out[14]:5 0.001569197
2 chanx_left_out[14]:5 chanx_left_out[14]:4 0.0045
3 chanx_left_out[14]:4 chanx_left_out[14]:3 0.001729911
4 chanx_left_out[14]:3 chanx_left_out[14]:2 0.00341
5 chanx_left_out[14]:2 chanx_left_out[14] 0.0001664583

*END

*D_NET ropt_net_95 0.0007640456 //LENGTH 6.305 LUMPCC 0.0001938031 DR

*CONN
*I ropt_mt_inst_671:X O *L 0 *C 4.140 34.680
*I ropt_mt_inst_680:A I *L 0.001766 *C 3.220 39.440
*N ropt_net_95:2 *C 3.220 39.440
*N ropt_net_95:3 *C 3.220 39.395
*N ropt_net_95:4 *C 3.220 34.725
*N ropt_net_95:5 *C 3.265 34.680
*N ropt_net_95:6 *C 4.103 34.680

*CAP
0 ropt_mt_inst_671:X 1e-06
1 ropt_mt_inst_680:A 1e-06
2 ropt_net_95:2 3.608713e-05
3 ropt_net_95:3 0.0002269107
4 ropt_net_95:4 0.0002269107
5 ropt_net_95:5 3.916699e-05
6 ropt_net_95:6 3.916699e-05