*SPEF "1481-1998"
*DESIGN "sb_2__2_"
*DATE "Tue Oct 27 11:35:07 2020"
*
*
*
*
*DIVIDER /
*DELIMITER :
*T_UNIT 1 NS
*C_UNIT 1 PF
*R_UNIT 1 KOHM
*L_UNIT 1 HENRY

// XY_UNIT 1 UM
// PARASITIC_TECH nominal at 25.000 degree

*PORTS
prog_clk[0] I *C 2.300 17.000
chany_bottom_in[0] I *C 55.200 0.680
chany_bottom_in[1] I *C 39.560 0.680
chany_bottom_in[2] I *C 68.540 0.680
chany_bottom_in[3] I *C 59.800 0.680
chany_bottom_in[4] I *C 69.460 0.680
chany_bottom_in[5] I *C 50.140 0.680
chany_bottom_in[6] I *C 70.380 0.680
chany_bottom_in[7] I *C 60.720 0.680
chany_bottom_in[8] I *C 67.620 0.680
chany_bottom_in[9] I *C 61.640 0.680
chany_bottom_in[10] I *C 46.000 0.680
chany_bottom_in[11] I *C 58.420 0.680
chany_bottom_in[12] I *C 37.720 0.680
chany_bottom_in[13] I *C 40.480 0.680
chany_bottom_in[14] I *C 52.440 0.680
chany_bottom_in[15] I *C 48.760 0.680
chany_bottom_in[16] I *C 38.640 0.680
chany_bottom_in[17] I *C 41.400 0.680
chany_bottom_in[18] I *C 45.080 0.680
chany_bottom_in[19] I *C 72.220 0.680
bottom_right_grid_pin_1_[0] I *C 80.500 0.680
bottom_left_grid_pin_34_[0] I *C 21.620 0.680
bottom_left_grid_pin_35_[0] I *C 22.540 0.680
bottom_left_grid_pin_36_[0] I *C 20.700 0.680
bottom_left_grid_pin_37_[0] I *C 11.040 17.000
bottom_left_grid_pin_38_[0] I *C 11.040 17.000
bottom_left_grid_pin_39_[0] I *C 8.740 17.000
bottom_left_grid_pin_40_[0] I *C 6.900 17.000
bottom_left_grid_pin_41_[0] I *C 19.090 5.440
chanx_left_in[0] I *C 0.690 31.280
chanx_left_in[1] I *C 0.690 21.760
chanx_left_in[2] I *C 0.690 34.000
chanx_left_in[3] I *C 0.690 35.360
chanx_left_in[4] I *C 0.690 72.080
chanx_left_in[5] I *C 0.690 53.040
chanx_left_in[6] I *C 0.690 51.680
chanx_left_in[7] I *C 0.690 47.600
chanx_left_in[8] I *C 0.690 48.960
chanx_left_in[9] I *C 0.690 29.920
chanx_left_in[10] I *C 0.690 74.800
chanx_left_in[11] I *C 0.690 44.880
chanx_left_in[12] I *C 0.690 70.720
chanx_left_in[13] I *C 0.690 54.400
chanx_left_in[14] I *C 0.690 32.640
chanx_left_in[15] I *C 0.690 68.000
chanx_left_in[16] I *C 0.690 73.440
chanx_left_in[17] I *C 0.690 25.840
chanx_left_in[18] I *C 0.690 20.400
chanx_left_in[19] I *C 0.690 55.760
left_top_grid_pin_1_[0] I *C 3.680 80.920
ccff_head[0] I *C 2.760 80.920
chany_bottom_out[0] O *C 56.120 0.680
chany_bottom_out[1] O *C 43.240 0.680
chany_bottom_out[2] O *C 57.500 0.680
chany_bottom_out[3] O *C 46.000 0.680
chany_bottom_out[4] O *C 66.700 0.680
chany_bottom_out[5] O *C 51.060 0.680
chany_bottom_out[6] O *C 63.020 0.680
chany_bottom_out[7] O *C 52.900 0.680
chany_bottom_out[8] O *C 65.780 0.680
chany_bottom_out[9] O *C 47.840 0.680
chany_bottom_out[10] O *C 63.940 0.680
chany_bottom_out[11] O *C 46.920 0.680
chany_bottom_out[12] O *C 57.040 0.680
chany_bottom_out[13] O *C 35.880 0.680
chany_bottom_out[14] O *C 64.860 0.680
chany_bottom_out[15] O *C 54.280 0.680
chany_bottom_out[16] O *C 71.300 0.680
chany_bottom_out[17] O *C 55.200 0.680
chany_bottom_out[18] O *C 51.980 0.680
chany_bottom_out[19] O *C 42.320 0.680
chanx_left_out[0] O *C 0.690 46.240
chanx_left_out[1] O *C 0.690 36.720
chanx_left_out[2] O *C 0.690 28.560
chanx_left_out[3] O *C 0.690 23.120
chanx_left_out[4] O *C 0.690 27.200
chanx_left_out[5] O *C 0.690 43.520
chanx_left_out[6] O *C 0.690 38.080
chanx_left_out[7] O *C 0.690 42.160
chanx_left_out[8] O *C 0.690 66.640
chanx_left_out[9] O *C 0.690 39.440
chanx_left_out[10] O *C 0.690 50.320
chanx_left_out[11] O *C 0.690 58.480
chanx_left_out[12] O *C 0.690 57.120
chanx_left_out[13] O *C 0.690 65.280
chanx_left_out[14] O *C 0.690 59.840
chanx_left_out[15] O *C 0.690 40.800
chanx_left_out[16] O *C 0.690 24.480
chanx_left_out[17] O *C 0.690 63.920
chanx_left_out[18] O *C 0.690 61.200
chanx_left_out[19] O *C 0.690 62.560
ccff_tail[0] O *C 0.690 69.360
VDD I *C 42.320 40.800
VSS I *C 42.320 40.800

*D_NET chany_bottom_in[0] 0.01483613 //LENGTH 92.170 LUMPCC 0.007876202 DR

*CONN
*P chany_bottom_in[0] I *L 0.29796 *C 55.200 1.210
*I ropt_mt_inst_711:A I *L 0.001767 *C 3.220 39.440
*N chany_bottom_in[0]:2 *C 3.220 39.440
*N chany_bottom_in[0]:3 *C 3.220 39.780
*N chany_bottom_in[0]:4 *C 6.395 39.780
*N chany_bottom_in[0]:5 *C 6.440 39.735
*N chany_bottom_in[0]:6 *C 6.440 28.617
*N chany_bottom_in[0]:7 *C 6.448 28.560
*N chany_bottom_in[0]:8 *C 55.180 28.560
*N chany_bottom_in[0]:9 *C 55.200 28.553

*CAP
0 chany_bottom_in[0] 0.0007108211
1 ropt_mt_inst_711:A 1e-06
2 chany_bottom_in[0]:2 5.939856e-05
3 chany_bottom_in[0]:3 0.0002327032
4 chany_bottom_in[0]:4 0.0002036914
5 chany_bottom_in[0]:5 0.000410174
6 chany_bottom_in[0]:6 0.000410174
7 chany_bottom_in[0]:7 0.00211057
8 chany_bottom_in[0]:8 0.00211057
9 chany_bottom_in[0]:9 0.0007108211
10 chany_bottom_in[0]:5 chany_bottom_in[17]:17 1.849606e-07
11 chany_bottom_in[0]:6 chany_bottom_in[17]:18 1.849606e-07
12 chany_bottom_in[0]:7 chany_bottom_in[17]:23 0.0001006878
13 chany_bottom_in[0]:7 chany_bottom_in[17]:25 0.0005634788
14 chany_bottom_in[0]:8 chany_bottom_in[17]:26 0.0005634788
15 chany_bottom_in[0]:8 chany_bottom_in[17]:24 0.0001006878
16 chany_bottom_in[0] chany_bottom_in[11]:9 0.001088623
17 chany_bottom_in[0]:9 chany_bottom_in[11]:8 0.001088623
18 chany_bottom_in[0]:7 bottom_left_grid_pin_41_[0]:18 0.0006515664
19 chany_bottom_in[0]:8 bottom_left_grid_pin_41_[0]:17 0.0006515664
20 chany_bottom_in[0]:7 chanx_left_in[9] 0.0004642322
21 chany_bottom_in[0]:7 chanx_left_in[9]:7 0.0002817949
22 chany_bottom_in[0]:8 chanx_left_in[9]:6 0.0002817949
23 chany_bottom_in[0]:8 chanx_left_in[9]:13 0.0004642322
24 chany_bottom_in[0] mux_bottom_track_13/sky130_fd_sc_hd__mux2_1_1_X[0]:9 0.000425273
25 chany_bottom_in[0]:9 mux_bottom_track_13/sky130_fd_sc_hd__mux2_1_1_X[0]:10 0.000425273
26 chany_bottom_in[0]:5 mux_left_track_5/sky130_fd_sc_hd__mux2_1_1_X[0]:5 0.0002168424
27 chany_bottom_in[0]:6 mux_left_track_5/sky130_fd_sc_hd__mux2_1_1_X[0]:4 0.0002168424
28 chany_bottom_in[0]:5 BUF_net_52:3 0.0001454178
29 chany_bottom_in[0]:6 BUF_net_52:4 0.0001454178

*RES
0 chany_bottom_in[0] chany_bottom_in[0]:9 0.004283658
1 chany_bottom_in[0]:2 ropt_mt_inst_711:A 0.152
2 chany_bottom_in[0]:4 chany_bottom_in[0]:3 0.002834822
3 chany_bottom_in[0]:5 chany_bottom_in[0]:4 0.0045
4 chany_bottom_in[0]:6 chany_bottom_in[0]:5 0.00992634
5 chany_bottom_in[0]:7 chany_bottom_in[0]:6 0.00341
6 chany_bottom_in[0]:8 chany_bottom_in[0]:7 0.007634758
7 chany_bottom_in[0]:9 chany_bottom_in[0]:8 0.00341
8 chany_bottom_in[0]:3 chany_bottom_in[0]:2 0.0003035715

*END

*D_NET prog_clk[0] 0.07371669 //LENGTH 517.253 LUMPCC 0.0159415 DR

*CONN
*P prog_clk[0] I *L 0.29796 *C 2.300 17.645
*I mem_bottom_track_7\/sky130_fd_sc_hd__dfxbp_1_2_:CLK I *L 0.001922 *C 25.620 9.520
*I mem_bottom_track_9\/sky130_fd_sc_hd__dfxbp_1_0_:CLK I *L 0.001922 *C 29.705 4.080
*I mem_bottom_track_7\/sky130_fd_sc_hd__dfxbp_1_0_:CLK I *L 0.001922 *C 31.545 17.680
*I mem_bottom_track_7\/sky130_fd_sc_hd__dfxbp_1_1_:CLK I *L 0.001922 *C 30.165 14.960
*I mem_bottom_track_11\/sky130_fd_sc_hd__dfxbp_1_0_:CLK I *L 0.001922 *C 40.745 17.680
*I mem_bottom_track_5\/sky130_fd_sc_hd__dfxbp_1_2_:CLK I *L 0.001922 *C 38.940 20.400
*I mem_bottom_track_9\/sky130_fd_sc_hd__dfxbp_1_1_:CLK I *L 0.001922 *C 38.075 12.240
*I mem_bottom_track_35\/sky130_fd_sc_hd__dfxbp_1_1_:CLK I *L 0.001922 *C 53.625 20.400
*I mem_bottom_track_19\/sky130_fd_sc_hd__dfxbp_1_1_:CLK I *L 0.001922 *C 55.005 25.840
*I mem_bottom_track_21\/sky130_fd_sc_hd__dfxbp_1_0_:CLK I *L 0.001922 *C 53.625 34.000
*I mem_bottom_track_33\/sky130_fd_sc_hd__dfxbp_1_1_:CLK I *L 0.001922 *C 58.225 14.960
*I mem_bottom_track_17\/sky130_fd_sc_hd__dfxbp_1_1_:CLK I *L 0.001922 *C 69.725 34.000
*I mem_bottom_track_17\/sky130_fd_sc_hd__dfxbp_1_0_:CLK I *L 0.001922 *C 66.040 36.720
*I mem_bottom_track_37\/sky130_fd_sc_hd__dfxbp_1_1_:CLK I *L 0.001922 *C 68.805 42.160
*I mem_bottom_track_39\/sky130_fd_sc_hd__dfxbp_1_0_:CLK I *L 0.001922 *C 68.345 44.880
*I mem_bottom_track_19\/sky130_fd_sc_hd__dfxbp_1_0_:CLK I *L 0.001922 *C 70.645 25.840
*I mem_bottom_track_37\/sky130_fd_sc_hd__dfxbp_1_0_:CLK I *L 0.001922 *C 68.345 28.560
*I mem_bottom_track_35\/sky130_fd_sc_hd__dfxbp_1_0_:CLK I *L 0.001922 *C 71.565 14.960
*I mem_bottom_track_1\/sky130_fd_sc_hd__dfxbp_1_2_:CLK I *L 0.001922 *C 3.025 20.400
*I mem_bottom_track_1\/sky130_fd_sc_hd__dfxbp_1_1_:CLK I *L 0.001922 *C 3.025 25.840
*I mem_bottom_track_3\/sky130_fd_sc_hd__dfxbp_1_0_:CLK I *L 0.001922 *C 7.595 28.560
*I mem_left_track_5\/sky130_fd_sc_hd__dfxbp_1_1_:CLK I *L 0.001922 *C 7.625 47.600
*I mem_left_track_5\/sky130_fd_sc_hd__dfxbp_1_0_:CLK I *L 0.001922 *C 16.335 44.880
*I mem_bottom_track_27\/sky130_fd_sc_hd__dfxbp_1_0_:CLK I *L 0.001922 *C 32.465 55.760
*I mem_left_track_1\/sky130_fd_sc_hd__dfxbp_1_1_:CLK I *L 0.001922 *C 22.345 58.480
*I mem_bottom_track_25\/sky130_fd_sc_hd__dfxbp_1_0_:CLK I *L 0.001922 *C 25.565 72.080
*I mem_bottom_track_25\/sky130_fd_sc_hd__dfxbp_1_1_:CLK I *L 0.001922 *C 31.085 63.920
*I mem_bottom_track_29\/sky130_fd_sc_hd__dfxbp_1_0_:CLK I *L 0.001922 *C 34.305 66.640
*I mem_bottom_track_29\/sky130_fd_sc_hd__dfxbp_1_1_:CLK I *L 0.001922 *C 36.605 72.080
*I mem_bottom_track_23\/sky130_fd_sc_hd__dfxbp_1_1_:CLK I *L 0.001922 *C 23.725 66.640
*I mem_left_track_1\/sky130_fd_sc_hd__dfxbp_1_0_:CLK I *L 0.001922 *C 21.425 53.040
*I mem_bottom_track_39\/sky130_fd_sc_hd__dfxbp_1_1_:CLK I *L 0.001922 *C 22.805 47.600
*I mem_left_track_9\/sky130_fd_sc_hd__dfxbp_1_0_:CLK I *L 0.001922 *C 7.650 55.760
*I mem_left_track_9\/sky130_fd_sc_hd__dfxbp_1_1_:CLK I *L 0.001922 *C 7.625 61.200
*I mem_bottom_track_1\/sky130_fd_sc_hd__dfxbp_1_0_:CLK I *L 0.001922 *C 7.625 72.080
*I mem_left_track_25\/sky130_fd_sc_hd__dfxbp_1_0_:CLK I *L 0.001922 *C 7.625 69.360
*I mem_left_track_25\/sky130_fd_sc_hd__dfxbp_1_1_:CLK I *L 0.001922 *C 12.215 74.800
*I mem_bottom_track_3\/sky130_fd_sc_hd__dfxbp_1_1_:CLK I *L 0.001922 *C 10.845 34.000
*I mem_bottom_track_3\/sky130_fd_sc_hd__dfxbp_1_2_:CLK I *L 0.001922 *C 19.585 34.000
*I mem_bottom_track_5\/sky130_fd_sc_hd__dfxbp_1_0_:CLK I *L 0.001922 *C 28.325 34.000
*I mem_bottom_track_5\/sky130_fd_sc_hd__dfxbp_1_1_:CLK I *L 0.001922 *C 34.765 31.280
*I mem_bottom_track_11\/sky130_fd_sc_hd__dfxbp_1_1_:CLK I *L 0.001922 *C 39.365 34.000
*I mem_bottom_track_13\/sky130_fd_sc_hd__dfxbp_1_0_:CLK I *L 0.001922 *C 37.525 39.440
*I mem_bottom_track_27\/sky130_fd_sc_hd__dfxbp_1_1_:CLK I *L 0.001922 *C 32.925 44.880
*I mem_bottom_track_13\/sky130_fd_sc_hd__dfxbp_1_1_:CLK I *L 0.001922 *C 41.665 61.200
*I mem_bottom_track_15\/sky130_fd_sc_hd__dfxbp_1_0_:CLK I *L 0.001922 *C 45.805 55.760
*I mem_bottom_track_31\/sky130_fd_sc_hd__dfxbp_1_0_:CLK I *L 0.001922 *C 49.945 72.080
*I mem_bottom_track_31\/sky130_fd_sc_hd__dfxbp_1_1_:CLK I *L 0.001922 *C 51.325 69.360
*I mem_bottom_track_21\/sky130_fd_sc_hd__dfxbp_1_1_:CLK I *L 0.001922 *C 56.845 58.480
*I mem_bottom_track_33\/sky130_fd_sc_hd__dfxbp_1_0_:CLK I *L 0.001922 *C 59.605 61.200
*I mem_bottom_track_23\/sky130_fd_sc_hd__dfxbp_1_0_:CLK I *L 0.001922 *C 62.825 66.640
*I mem_bottom_track_15\/sky130_fd_sc_hd__dfxbp_1_1_:CLK I *L 0.001922 *C 49.025 44.880
*N prog_clk[0]:53 *C 49.025 44.880
*N prog_clk[0]:54 *C 49.220 44.880
*N prog_clk[0]:55 *C 49.220 44.880
*N prog_clk[0]:56 *C 49.213 44.880
*N prog_clk[0]:57 *C 62.825 66.640
*N prog_clk[0]:58 *C 63.020 66.640
*N prog_clk[0]:59 *C 63.020 66.640
*N prog_clk[0]:60 *C 63.013 66.640
*N prog_clk[0]:61 *C 58.428 66.640
*N prog_clk[0]:62 *C 58.420 66.583
*N prog_clk[0]:63 *C 59.568 61.200
*N prog_clk[0]:64 *C 58.420 61.200
*N prog_clk[0]:65 *C 58.420 60.860
*N prog_clk[0]:66 *C 58.420 60.860
*N prog_clk[0]:67 *C 58.420 58.538
*N prog_clk[0]:68 *C 58.413 58.480
*N prog_clk[0]:69 *C 56.845 58.480
*N prog_clk[0]:70 *C 56.580 58.480
*N prog_clk[0]:71 *C 56.580 58.480
*N prog_clk[0]:72 *C 56.580 58.480
*N prog_clk[0]:73 *C 51.325 69.360
*N prog_clk[0]:74 *C 51.060 69.700
*N prog_clk[0]:75 *C 51.060 69.700
*N prog_clk[0]:76 *C 49.945 72.080
*N prog_clk[0]:77 *C 50.140 72.080
*N prog_clk[0]:78 *C 50.140 72.035
*N prog_clk[0]:79 *C 50.140 69.418
*N prog_clk[0]:80 *C 50.148 69.360
*N prog_clk[0]:81 *C 51.053 69.360
*N prog_clk[0]:82 *C 51.060 69.303
*N prog_clk[0]:83 *C 51.060 58.538
*N prog_clk[0]:84 *C 51.060 58.480
*N prog_clk[0]:85 *C 45.547 58.480
*N prog_clk[0]:86 *C 45.540 58.422
*N prog_clk[0]:87 *C 45.805 55.760
*N prog_clk[0]:88 *C 45.540 55.760
*N prog_clk[0]:89 *C 45.540 55.760
*N prog_clk[0]:90 *C 45.532 55.760
*N prog_clk[0]:91 *C 41.665 61.200
*N prog_clk[0]:92 *C 41.400 61.200
*N prog_clk[0]:93 *C 41.400 61.155
*N prog_clk[0]:94 *C 41.400 55.818
*N prog_clk[0]:95 *C 41.407 55.760
*N prog_clk[0]:96 *C 42.320 55.760
*N prog_clk[0]:97 *C 42.320 55.753
*N prog_clk[0]:98 *C 42.320 44.888
*N prog_clk[0]:99 *C 42.320 44.880
*N prog_clk[0]:100 *C 32.925 44.880
*N prog_clk[0]:101 *C 33.120 44.880
*N prog_clk[0]:102 *C 33.120 44.880
*N prog_clk[0]:103 *C 33.128 44.880
*N prog_clk[0]:104 *C 34.500 44.880
*N prog_clk[0]:105 *C 34.500 44.823
*N prog_clk[0]:106 *C 37.488 39.440
*N prog_clk[0]:107 *C 36.385 39.440
*N prog_clk[0]:108 *C 36.340 39.440
*N prog_clk[0]:109 *C 36.333 39.440
*N prog_clk[0]:110 *C 34.508 39.440
*N prog_clk[0]:111 *C 34.500 39.440
*N prog_clk[0]:112 *C 39.365 34.000
*N prog_clk[0]:113 *C 39.100 34.000
*N prog_clk[0]:114 *C 39.100 34.000
*N prog_clk[0]:115 *C 39.093 34.000
*N prog_clk[0]:116 *C 34.508 34.000
*N prog_clk[0]:117 *C 34.500 34.000
*N prog_clk[0]:118 *C 34.765 31.280
*N prog_clk[0]:119 *C 34.500 31.280
*N prog_clk[0]:120 *C 34.500 31.325
*N prog_clk[0]:121 *C 34.500 31.960
*N prog_clk[0]:122 *C 34.492 31.960
*N prog_clk[0]:123 *C 28.325 34.000
*N prog_clk[0]:124 *C 28.520 34.000
*N prog_clk[0]:125 *C 28.520 33.955
*N prog_clk[0]:126 *C 28.520 32.017
*N prog_clk[0]:127 *C 28.520 31.960
*N prog_clk[0]:128 *C 19.585 34.000
*N prog_clk[0]:129 *C 19.320 34.000
*N prog_clk[0]:130 *C 19.320 33.955
*N prog_clk[0]:131 *C 19.320 32.017
*N prog_clk[0]:132 *C 19.320 31.960
*N prog_clk[0]:133 *C 10.845 34.000
*N prog_clk[0]:134 *C 11.040 34.000
*N prog_clk[0]:135 *C 11.040 33.955
*N prog_clk[0]:136 *C 11.040 32.017
*N prog_clk[0]:137 *C 11.040 31.960
*N prog_clk[0]:138 *C 12.215 74.800
*N prog_clk[0]:139 *C 12.215 74.120
*N prog_clk[0]:140 *C 11.040 74.120
*N prog_clk[0]:141 *C 11.040 75.140
*N prog_clk[0]:142 *C 6.485 75.140
*N prog_clk[0]:143 *C 6.440 75.095
*N prog_clk[0]:144 *C 7.588 69.360
*N prog_clk[0]:145 *C 6.485 69.360
*N prog_clk[0]:146 *C 6.440 69.360
*N prog_clk[0]:147 *C 6.433 69.360
*N prog_clk[0]:148 *C 7.588 72.080
*N prog_clk[0]:149 *C 3.725 72.080
*N prog_clk[0]:150 *C 3.680 72.035
*N prog_clk[0]:151 *C 3.680 69.418
*N prog_clk[0]:152 *C 3.688 69.360
*N prog_clk[0]:153 *C 5.060 69.360
*N prog_clk[0]:154 *C 5.060 69.303
*N prog_clk[0]:155 *C 7.588 61.200
*N prog_clk[0]:156 *C 6.485 61.200
*N prog_clk[0]:157 *C 6.440 61.200
*N prog_clk[0]:158 *C 6.433 61.200
*N prog_clk[0]:159 *C 5.067 61.200
*N prog_clk[0]:160 *C 5.060 61.200
*N prog_clk[0]:161 *C 7.623 55.783
*N prog_clk[0]:162 *C 7.360 55.795
*N prog_clk[0]:163 *C 7.360 56.440
*N prog_clk[0]:164 *C 5.105 56.440
*N prog_clk[0]:165 *C 5.060 56.440
*N prog_clk[0]:166 *C 22.768 47.600
*N prog_clk[0]:167 *C 22.125 47.600
*N prog_clk[0]:168 *C 22.080 47.555
*N prog_clk[0]:169 *C 22.080 46.240
*N prog_clk[0]:170 *C 21.425 53.040
*N prog_clk[0]:171 *C 21.160 53.040
*N prog_clk[0]:172 *C 23.688 66.640
*N prog_clk[0]:173 *C 23.045 66.640
*N prog_clk[0]:174 *C 23.000 66.595
*N prog_clk[0]:175 *C 36.605 72.080
*N prog_clk[0]:176 *C 36.340 72.080
*N prog_clk[0]:177 *C 36.340 72.080
*N prog_clk[0]:178 *C 36.333 72.080
*N prog_clk[0]:179 *C 33.587 72.080
*N prog_clk[0]:180 *C 33.580 72.023
*N prog_clk[0]:181 *C 34.267 66.640
*N prog_clk[0]:182 *C 33.580 66.640
*N prog_clk[0]:183 *C 33.580 66.300
*N prog_clk[0]:184 *C 33.550 66.330
*N prog_clk[0]:185 *C 33.535 66.640
*N prog_clk[0]:186 *C 33.120 66.640
*N prog_clk[0]:187 *C 33.120 64.657
*N prog_clk[0]:188 *C 33.113 64.600
*N prog_clk[0]:189 *C 31.085 63.920
*N prog_clk[0]:190 *C 31.280 63.920
*N prog_clk[0]:191 *C 31.280 63.965
*N prog_clk[0]:192 *C 31.280 64.543
*N prog_clk[0]:193 *C 31.280 64.600
*N prog_clk[0]:194 *C 25.565 72.080
*N prog_clk[0]:195 *C 25.760 72.080
*N prog_clk[0]:196 *C 25.760 72.035
*N prog_clk[0]:197 *C 25.760 64.657
*N prog_clk[0]:198 *C 25.760 64.600
*N prog_clk[0]:199 *C 23.008 64.600
*N prog_clk[0]:200 *C 23.000 64.600
*N prog_clk[0]:201 *C 22.345 58.480
*N prog_clk[0]:202 *C 22.540 58.820
*N prog_clk[0]:203 *C 22.955 58.820
*N prog_clk[0]:204 *C 23.000 58.820
*N prog_clk[0]:205 *C 32.428 55.760
*N prog_clk[0]:206 *C 31.325 55.760
*N prog_clk[0]:207 *C 31.280 55.760
*N prog_clk[0]:208 *C 31.273 55.760
*N prog_clk[0]:209 *C 23.008 55.760
*N prog_clk[0]:210 *C 23.000 55.760
*N prog_clk[0]:211 *C 23.000 53.098
*N prog_clk[0]:212 *C 22.992 53.040
*N prog_clk[0]:213 *C 21.168 53.040
*N prog_clk[0]:214 *C 21.160 53.040
*N prog_clk[0]:215 *C 21.160 46.240
*N prog_clk[0]:216 *C 21.152 46.240
*N prog_clk[0]:217 *C 16.335 44.880
*N prog_clk[0]:218 *C 16.560 44.880
*N prog_clk[0]:219 *C 16.560 44.925
*N prog_clk[0]:220 *C 16.560 46.183
*N prog_clk[0]:221 *C 16.560 46.240
*N prog_clk[0]:222 *C 14.260 46.240
*N prog_clk[0]:223 *C 14.260 45.565
*N prog_clk[0]:224 *C 14.105 45.568
*N prog_clk[0]:225 *C 7.625 47.600
*N prog_clk[0]:226 *C 7.360 47.600
*N prog_clk[0]:227 *C 7.360 47.555
*N prog_clk[0]:228 *C 7.360 45.617
*N prog_clk[0]:229 *C 7.360 45.560
*N prog_clk[0]:230 *C 5.067 45.560
*N prog_clk[0]:231 *C 5.060 45.560
*N prog_clk[0]:232 *C 5.060 32.017
*N prog_clk[0]:233 *C 5.060 31.960
*N prog_clk[0]:234 *C 2.768 31.960
*N prog_clk[0]:235 *C 2.760 31.902
*N prog_clk[0]:236 *C 7.558 28.560
*N prog_clk[0]:237 *C 3.680 28.560
*N prog_clk[0]:238 *C 3.680 29.240
*N prog_clk[0]:239 *C 2.805 29.240
*N prog_clk[0]:240 *C 2.760 29.240
*N prog_clk[0]:241 *C 3.025 25.840
*N prog_clk[0]:242 *C 2.760 26.180
*N prog_clk[0]:243 *C 2.760 26.180
*N prog_clk[0]:244 *C 3.025 20.400
*N prog_clk[0]:245 *C 2.760 20.740
*N prog_clk[0]:246 *C 2.760 20.740
*N prog_clk[0]:247 *C 71.528 14.960
*N prog_clk[0]:248 *C 70.885 14.960
*N prog_clk[0]:249 *C 70.840 15.005
*N prog_clk[0]:250 *C 70.840 17.623
*N prog_clk[0]:251 *C 70.833 17.680
*N prog_clk[0]:252 *C 68.345 28.560
*N prog_clk[0]:253 *C 68.080 28.560
*N prog_clk[0]:254 *C 68.080 28.515
*N prog_clk[0]:255 *C 70.608 25.840
*N prog_clk[0]:256 *C 68.125 25.840
*N prog_clk[0]:257 *C 68.080 25.885
*N prog_clk[0]:258 *C 68.080 26.520
*N prog_clk[0]:259 *C 68.345 44.880
*N prog_clk[0]:260 *C 68.080 44.880
*N prog_clk[0]:261 *C 68.080 44.835
*N prog_clk[0]:262 *C 68.767 42.160
*N prog_clk[0]:263 *C 68.080 42.160
*N prog_clk[0]:264 *C 68.080 42.500
*N prog_clk[0]:265 *C 68.080 42.545
*N prog_clk[0]:266 *C 68.080 42.160
*N prog_clk[0]:267 *C 68.073 42.160
*N prog_clk[0]:268 *C 67.168 42.160
*N prog_clk[0]:269 *C 67.160 42.102
*N prog_clk[0]:270 *C 66.040 36.720
*N prog_clk[0]:271 *C 66.240 36.720
*N prog_clk[0]:272 *C 66.240 36.720
*N prog_clk[0]:273 *C 67.160 36.720
*N prog_clk[0]:274 *C 67.160 34.000
*N prog_clk[0]:275 *C 69.688 34.000
*N prog_clk[0]:276 *C 69.045 34.000
*N prog_clk[0]:277 *C 69.000 34.000
*N prog_clk[0]:278 *C 68.993 34.000
*N prog_clk[0]:279 *C 67.627 34.000
*N prog_clk[0]:280 *C 67.620 33.943
*N prog_clk[0]:281 *C 67.620 26.520
*N prog_clk[0]:282 *C 67.620 17.738
*N prog_clk[0]:283 *C 67.620 17.680
*N prog_clk[0]:284 *C 58.225 14.960
*N prog_clk[0]:285 *C 58.420 14.960
*N prog_clk[0]:286 *C 58.420 15.005
*N prog_clk[0]:287 *C 58.420 17.623
*N prog_clk[0]:288 *C 58.420 17.680
*N prog_clk[0]:289 *C 53.625 34.000
*N prog_clk[0]:290 *C 53.820 34.000
*N prog_clk[0]:291 *C 53.820 33.955
*N prog_clk[0]:292 *C 55.005 25.840
*N prog_clk[0]:293 *C 54.740 25.840
*N prog_clk[0]:294 *C 54.740 25.840
*N prog_clk[0]:295 *C 54.733 25.840
*N prog_clk[0]:296 *C 53.828 25.840
*N prog_clk[0]:297 *C 53.820 25.840
*N prog_clk[0]:298 *C 53.625 20.400
*N prog_clk[0]:299 *C 53.820 20.740
*N prog_clk[0]:300 *C 53.820 20.740
*N prog_clk[0]:301 *C 53.820 17.738
*N prog_clk[0]:302 *C 53.820 17.680
*N prog_clk[0]:303 *C 38.075 12.240
*N prog_clk[0]:304 *C 38.032 12.550
*N prog_clk[0]:305 *C 37.750 12.550
*N prog_clk[0]:306 *C 37.720 12.625
*N prog_clk[0]:307 *C 37.720 16.262
*N prog_clk[0]:308 *C 37.727 16.320
*N prog_clk[0]:309 *C 38.940 20.400
*N prog_clk[0]:310 *C 38.640 20.400
*N prog_clk[0]:311 *C 38.640 20.355
*N prog_clk[0]:312 *C 38.640 16.378
*N prog_clk[0]:313 *C 38.640 16.320
*N prog_clk[0]:314 *C 40.473 16.320
*N prog_clk[0]:315 *C 40.480 16.378
*N prog_clk[0]:316 *C 40.745 17.680
*N prog_clk[0]:317 *C 40.480 17.680
*N prog_clk[0]:318 *C 40.480 17.680
*N prog_clk[0]:319 *C 40.480 17.680
*N prog_clk[0]:320 *C 30.165 14.960
*N prog_clk[0]:321 *C 30.360 14.960
*N prog_clk[0]:322 *C 30.360 15.005
*N prog_clk[0]:323 *C 31.508 17.680
*N prog_clk[0]:324 *C 30.405 17.680
*N prog_clk[0]:325 *C 30.360 17.680
*N prog_clk[0]:326 *C 30.360 17.680
*N prog_clk[0]:327 *C 29.668 4.080
*N prog_clk[0]:328 *C 28.565 4.080
*N prog_clk[0]:329 *C 28.520 4.080
*N prog_clk[0]:330 *C 28.513 4.080
*N prog_clk[0]:331 *C 26.688 4.080
*N prog_clk[0]:332 *C 26.680 4.138
*N prog_clk[0]:333 *C 25.620 9.520
*N prog_clk[0]:334 *C 25.760 9.520
*N prog_clk[0]:335 *C 26.680 9.520
*N prog_clk[0]:336 *C 26.680 17.623
*N prog_clk[0]:337 *C 26.680 17.680
*N prog_clk[0]:338 *C 10.120 17.680
*N prog_clk[0]:339 *C 10.120 18.360
*N prog_clk[0]:340 *C 2.768 18.360
*N prog_clk[0]:341 *C 2.760 18.360
*N prog_clk[0]:342 *C 2.760 17.680

*CAP
0 prog_clk[0] 2.455761e-05
1 mem_bottom_track_7\/sky130_fd_sc_hd__dfxbp_1_2_:CLK 1e-06
2 mem_bottom_track_9\/sky130_fd_sc_hd__dfxbp_1_0_:CLK 1e-06
3 mem_bottom_track_7\/sky130_fd_sc_hd__dfxbp_1_0_:CLK 1e-06
4 mem_bottom_track_7\/sky130_fd_sc_hd__dfxbp_1_1_:CLK 1e-06
5 mem_bottom_track_11\/sky130_fd_sc_hd__dfxbp_1_0_:CLK 1e-06
6 mem_bottom_track_5\/sky130_fd_sc_hd__dfxbp_1_2_:CLK 1e-06
7 mem_bottom_track_9\/sky130_fd_sc_hd__dfxbp_1_1_:CLK 1e-06
8 mem_bottom_track_35\/sky130_fd_sc_hd__dfxbp_1_1_:CLK 1e-06
9 mem_bottom_track_19\/sky130_fd_sc_hd__dfxbp_1_1_:CLK 1e-06
10 mem_bottom_track_21\/sky130_fd_sc_hd__dfxbp_1_0_:CLK 1e-06
11 mem_bottom_track_33\/sky130_fd_sc_hd__dfxbp_1_1_:CLK 1e-06
12 mem_bottom_track_17\/sky130_fd_sc_hd__dfxbp_1_1_:CLK 1e-06
13 mem_bottom_track_17\/sky130_fd_sc_hd__dfxbp_1_0_:CLK 1e-06
14 mem_bottom_track_37\/sky130_fd_sc_hd__dfxbp_1_1_:CLK 1e-06
15 mem_bottom_track_39\/sky130_fd_sc_hd__dfxbp_1_0_:CLK 1e-06
16 mem_bottom_track_19\/sky130_fd_sc_hd__dfxbp_1_0_:CLK 1e-06
17 mem_bottom_track_37\/sky130_fd_sc_hd__dfxbp_1_0_:CLK 1e-06
18 mem_bottom_track_35\/sky130_fd_sc_hd__dfxbp_1_0_:CLK 1e-06
19 mem_bottom_track_1\/sky130_fd_sc_hd__dfxbp_1_2_:CLK 1e-06
20 mem_bottom_track_1\/sky130_fd_sc_hd__dfxbp_1_1_:CLK 1e-06
21 mem_bottom_track_3\/sky130_fd_sc_hd__dfxbp_1_0_:CLK 1e-06
22 mem_left_track_5\/sky130_fd_sc_hd__dfxbp_1_1_:CLK 1e-06
23 mem_left_track_5\/sky130_fd_sc_hd__dfxbp_1_0_:CLK 1e-06
24 mem_bottom_track_27\/sky130_fd_sc_hd__dfxbp_1_0_:CLK 1e-06
25 mem_left_track_1\/sky130_fd_sc_hd__dfxbp_1_1_:CLK 1e-06
26 mem_bottom_track_25\/sky130_fd_sc_hd__dfxbp_1_0_:CLK 1e-06
27 mem_bottom_track_25\/sky130_fd_sc_hd__dfxbp_1_1_:CLK 1e-06
28 mem_bottom_track_29\/sky130_fd_sc_hd__dfxbp_1_0_:CLK 1e-06
29 mem_bottom_track_29\/sky130_fd_sc_hd__dfxbp_1_1_:CLK 1e-06
30 mem_bottom_track_23\/sky130_fd_sc_hd__dfxbp_1_1_:CLK 1e-06
31 mem_left_track_1\/sky130_fd_sc_hd__dfxbp_1_0_:CLK 1e-06
32 mem_bottom_track_39\/sky130_fd_sc_hd__dfxbp_1_1_:CLK 1e-06
33 mem_left_track_9\/sky130_fd_sc_hd__dfxbp_1_0_:CLK 1e-06
34 mem_left_track_9\/sky130_fd_sc_hd__dfxbp_1_1_:CLK 1e-06
35 mem_bottom_track_1\/sky130_fd_sc_hd__dfxbp_1_0_:CLK 1e-06
36 mem_left_track_25\/sky130_fd_sc_hd__dfxbp_1_0_:CLK 1e-06
37 mem_left_track_25\/sky130_fd_sc_hd__dfxbp_1_1_:CLK 1e-06
38 mem_bottom_track_3\/sky130_fd_sc_hd__dfxbp_1_1_:CLK 1e-06
39 mem_bottom_track_3\/sky130_fd_sc_hd__dfxbp_1_2_:CLK 1e-06
40 mem_bottom_track_5\/sky130_fd_sc_hd__dfxbp_1_0_:CLK 1e-06
41 mem_bottom_track_5\/sky130_fd_sc_hd__dfxbp_1_1_:CLK 1e-06
42 mem_bottom_track_11\/sky130_fd_sc_hd__dfxbp_1_1_:CLK 1e-06
43 mem_bottom_track_13\/sky130_fd_sc_hd__dfxbp_1_0_:CLK 1e-06
44 mem_bottom_track_27\/sky130_fd_sc_hd__dfxbp_1_1_:CLK 1e-06
45 mem_bottom_track_13\/sky130_fd_sc_hd__dfxbp_1_1_:CLK 1e-06
46 mem_bottom_track_15\/sky130_fd_sc_hd__dfxbp_1_0_:CLK 1e-06
47 mem_bottom_track_31\/sky130_fd_sc_hd__dfxbp_1_0_:CLK 1e-06
48 mem_bottom_track_31\/sky130_fd_sc_hd__dfxbp_1_1_:CLK 1e-06
49 mem_bottom_track_21\/sky130_fd_sc_hd__dfxbp_1_1_:CLK 1e-06
50 mem_bottom_track_33\/sky130_fd_sc_hd__dfxbp_1_0_:CLK 1e-06
51 mem_bottom_track_23\/sky130_fd_sc_hd__dfxbp_1_0_:CLK 1e-06
52 mem_bottom_track_15\/sky130_fd_sc_hd__dfxbp_1_1_:CLK 1e-06
53 prog_clk[0]:53 4.589104e-05
54 prog_clk[0]:54 5.038564e-05
55 prog_clk[0]:55 3.987987e-05
56 prog_clk[0]:56 0.000396435
57 prog_clk[0]:57 5.918733e-05
58 prog_clk[0]:58 5.793511e-05
59 prog_clk[0]:59 3.631261e-05
60 prog_clk[0]:60 0.0001980946
61 prog_clk[0]:61 0.0001980946
62 prog_clk[0]:62 0.0003238097
63 prog_clk[0]:63 0.0001108757
64 prog_clk[0]:64 0.0001403584
65 prog_clk[0]:65 6.362083e-05
66 prog_clk[0]:66 0.0004507929
67 prog_clk[0]:67 9.316691e-05
68 prog_clk[0]:68 0.0001232654
69 prog_clk[0]:69 5.056743e-05
70 prog_clk[0]:70 5.433414e-05
71 prog_clk[0]:71 3.685592e-05
72 prog_clk[0]:72 0.0004471903
73 prog_clk[0]:73 5.6901e-05
74 prog_clk[0]:74 6.106633e-05
75 prog_clk[0]:75 4.977109e-05
76 prog_clk[0]:76 5.568849e-05
77 prog_clk[0]:77 5.780867e-05
78 prog_clk[0]:78 0.0001533381
79 prog_clk[0]:79 0.0001533381
80 prog_clk[0]:80 5.124541e-05
81 prog_clk[0]:81 5.124541e-05
82 prog_clk[0]:82 0.0004891829
83 prog_clk[0]:83 0.000470183
84 prog_clk[0]:84 0.0005496369
85 prog_clk[0]:85 0.000225712
86 prog_clk[0]:86 0.0001927322
87 prog_clk[0]:87 6.208304e-05
88 prog_clk[0]:88 5.868608e-05
89 prog_clk[0]:89 0.0002307065
90 prog_clk[0]:90 0.0001957113
91 prog_clk[0]:91 6.060603e-05
92 prog_clk[0]:92 6.091349e-05
93 prog_clk[0]:93 0.0003119227
94 prog_clk[0]:94 0.0003119227
95 prog_clk[0]:95 6.554474e-05
96 prog_clk[0]:96 0.000261256
97 prog_clk[0]:97 0.0005346141
98 prog_clk[0]:98 0.0005346141
99 prog_clk[0]:99 0.0008303716
100 prog_clk[0]:100 6.344347e-05
101 prog_clk[0]:101 6.354316e-05
102 prog_clk[0]:102 4.125169e-05
103 prog_clk[0]:103 8.137988e-05
104 prog_clk[0]:104 0.0005153165
105 prog_clk[0]:105 0.0003112891
106 prog_clk[0]:106 0.0001226571
107 prog_clk[0]:107 0.0001226571
108 prog_clk[0]:108 3.857586e-05
109 prog_clk[0]:109 0.0002051006
110 prog_clk[0]:110 0.0002051006
111 prog_clk[0]:111 0.000644385
112 prog_clk[0]:112 5.920154e-05
113 prog_clk[0]:113 5.46282e-05
114 prog_clk[0]:114 3.649398e-05
115 prog_clk[0]:115 0.0002245452
116 prog_clk[0]:116 0.0002245452
117 prog_clk[0]:117 0.0004488711
118 prog_clk[0]:118 5.4506e-05
119 prog_clk[0]:119 6.476414e-05
120 prog_clk[0]:120 4.960161e-05
121 prog_clk[0]:121 0.0002012799
122 prog_clk[0]:122 0.0002691188
123 prog_clk[0]:123 6.620839e-05
124 prog_clk[0]:124 6.693211e-05
125 prog_clk[0]:125 0.0001424834
126 prog_clk[0]:126 0.0001424834
127 prog_clk[0]:127 0.0006383664
128 prog_clk[0]:128 6.469006e-05
129 prog_clk[0]:129 6.450387e-05
130 prog_clk[0]:130 0.0001388761
131 prog_clk[0]:131 0.0001388761
132 prog_clk[0]:132 0.0006125203
133 prog_clk[0]:133 5.970041e-05
134 prog_clk[0]:134 6.099566e-05
135 prog_clk[0]:135 0.000137812
136 prog_clk[0]:136 0.000137812
137 prog_clk[0]:137 0.0004246809
138 prog_clk[0]:138 8.710903e-05
139 prog_clk[0]:139 0.0001351302
140 prog_clk[0]:140 0.0001417672
141 prog_clk[0]:141 0.0003987534
142 prog_clk[0]:142 0.0003401907
143 prog_clk[0]:143 0.0003277588
144 prog_clk[0]:144 4.900185e-05
145 prog_clk[0]:145 4.900185e-05
146 prog_clk[0]:146 0.0003653134
147 prog_clk[0]:147 0.0001071675
148 prog_clk[0]:148 0.0002629356
149 prog_clk[0]:149 0.0002629356
150 prog_clk[0]:150 0.0001811305
151 prog_clk[0]:151 0.0001811305
152 prog_clk[0]:152 0.0001114523
153 prog_clk[0]:153 0.0002186198
154 prog_clk[0]:154 0.0004037891
155 prog_clk[0]:155 9.441392e-05
156 prog_clk[0]:156 9.441392e-05
157 prog_clk[0]:157 3.622488e-05
158 prog_clk[0]:158 0.0001504426
159 prog_clk[0]:159 0.0001504426
160 prog_clk[0]:160 0.0006828033
161 prog_clk[0]:161 3.838427e-05
162 prog_clk[0]:162 8.209705e-05
163 prog_clk[0]:163 0.0002275879
164 prog_clk[0]:164 0.0001838751
165 prog_clk[0]:165 0.0007424958
166 prog_clk[0]:166 7.278495e-05
167 prog_clk[0]:167 7.278495e-05
168 prog_clk[0]:168 9.245841e-05
169 prog_clk[0]:169 0.0001564717
170 prog_clk[0]:170 5.457418e-05
171 prog_clk[0]:171 5.382684e-05
172 prog_clk[0]:172 7.881701e-05
173 prog_clk[0]:173 7.881701e-05
174 prog_clk[0]:174 0.0001139235
175 prog_clk[0]:175 5.832302e-05
176 prog_clk[0]:176 6.00881e-05
177 prog_clk[0]:177 3.688035e-05
178 prog_clk[0]:178 0.0001500743
179 prog_clk[0]:179 0.0001500743
180 prog_clk[0]:180 0.0002843477
181 prog_clk[0]:181 6.398927e-05
182 prog_clk[0]:182 9.351686e-05
183 prog_clk[0]:183 6.596494e-05
184 prog_clk[0]:184 3.582823e-05
185 prog_clk[0]:185 0.0003516137
186 prog_clk[0]:186 0.0001452872
187 prog_clk[0]:187 0.0001138493
188 prog_clk[0]:188 9.198648e-05
189 prog_clk[0]:189 4.921162e-05
190 prog_clk[0]:190 5.356638e-05
191 prog_clk[0]:191 5.673506e-05
192 prog_clk[0]:192 5.673506e-05
193 prog_clk[0]:193 0.0003780485
194 prog_clk[0]:194 5.036685e-05
195 prog_clk[0]:195 5.093158e-05
196 prog_clk[0]:196 0.0003614512
197 prog_clk[0]:197 0.0003614512
198 prog_clk[0]:198 0.0004850946
199 prog_clk[0]:199 0.0001990325
200 prog_clk[0]:200 0.000458944
201 prog_clk[0]:201 5.375503e-05
202 prog_clk[0]:202 7.933157e-05
203 prog_clk[0]:203 5.518961e-05
204 prog_clk[0]:204 0.0004611906
205 prog_clk[0]:205 0.0001058308
206 prog_clk[0]:206 0.0001058308
207 prog_clk[0]:207 3.9659e-05
208 prog_clk[0]:208 0.0005064694
209 prog_clk[0]:209 0.0005064694
210 prog_clk[0]:210 0.0002771052
211 prog_clk[0]:211 0.0001146664
212 prog_clk[0]:212 0.0002206193
213 prog_clk[0]:213 0.0002206193
214 prog_clk[0]:214 0.0004032892
215 prog_clk[0]:215 0.0004316192
216 prog_clk[0]:216 0.0001344018
217 prog_clk[0]:217 6.423552e-05
218 prog_clk[0]:218 6.323586e-05
219 prog_clk[0]:219 8.313888e-05
220 prog_clk[0]:220 8.313888e-05