*SPEF "1481-1998"
*DESIGN "sb_2__2_"
*DATE "Mon Oct 26 23:03:32 2020"
*
*
*
*
*DIVIDER /
*DELIMITER :
*T_UNIT 1 NS
*C_UNIT 1 PF
*R_UNIT 1 KOHM
*L_UNIT 1 HENRY

// XY_UNIT 1 UM
// PARASITIC_TECH nominal at 25.000 degree

*PORTS
prog_clk[0] I *C 30.820 0.680
chany_bottom_in[0] I *C 82.340 0.680
chany_bottom_in[1] I *C 67.160 0.680
chany_bottom_in[2] I *C 81.420 0.680
chany_bottom_in[3] I *C 88.320 0.680
chany_bottom_in[4] I *C 65.320 0.680
chany_bottom_in[5] I *C 75.900 0.680
chany_bottom_in[6] I *C 94.300 0.680
chany_bottom_in[7] I *C 87.400 0.680
chany_bottom_in[8] I *C 77.740 0.680
chany_bottom_in[9] I *C 84.180 0.680
chany_bottom_in[10] I *C 62.560 0.680
chany_bottom_in[11] I *C 86.480 0.680
chany_bottom_in[12] I *C 79.580 0.680
chany_bottom_in[13] I *C 68.080 0.680
chany_bottom_in[14] I *C 66.240 0.680
chany_bottom_in[15] I *C 53.360 0.680
chany_bottom_in[16] I *C 76.820 0.680
chany_bottom_in[17] I *C 69.920 0.680
chany_bottom_in[18] I *C 57.500 0.680
chany_bottom_in[19] I *C 78.660 0.680
bottom_right_grid_pin_1_[0] I *C 110.860 0.680
bottom_left_grid_pin_34_[0] I *C 29.210 10.200
bottom_left_grid_pin_35_[0] I *C 29.210 8.160
bottom_left_grid_pin_36_[0] I *C 29.210 6.800
bottom_left_grid_pin_37_[0] I *C 29.210 3.400
bottom_left_grid_pin_38_[0] I *C 29.210 4.760
bottom_left_grid_pin_39_[0] I *C 29.210 11.560
bottom_left_grid_pin_40_[0] I *C 29.210 12.920
bottom_left_grid_pin_41_[0] I *C 29.210 14.280
chanx_left_in[0] I *C 0.690 39.440
chanx_left_in[1] I *C 0.690 42.160
chanx_left_in[2] I *C 0.690 68.000
chanx_left_in[3] I *C 0.690 61.200
chanx_left_in[4] I *C 0.690 50.320
chanx_left_in[5] I *C 0.690 46.240
chanx_left_in[6] I *C 0.690 31.280
chanx_left_in[7] I *C 0.690 72.080
chanx_left_in[8] I *C 0.690 76.160
chanx_left_in[9] I *C 0.690 99.280
chanx_left_in[10] I *C 0.690 36.720
chanx_left_in[11] I *C 0.690 63.920
chanx_left_in[12] I *C 0.690 32.640
chanx_left_in[13] I *C 0.690 74.800
chanx_left_in[14] I *C 0.690 59.840
chanx_left_in[15] I *C 0.690 96.560
chanx_left_in[16] I *C 0.690 55.760
chanx_left_in[17] I *C 0.690 53.040
chanx_left_in[18] I *C 0.690 38.080
chanx_left_in[19] I *C 0.690 81.600
left_top_grid_pin_1_[0] I *C 2.300 102.680
ccff_head[0] I *C 18.860 102.680
chany_bottom_out[0] O *C 83.260 0.680
chany_bottom_out[1] O *C 59.800 0.680
chany_bottom_out[2] O *C 52.440 0.680
chany_bottom_out[3] O *C 69.000 0.680
chany_bottom_out[4] O *C 96.600 0.680
chany_bottom_out[5] O *C 71.760 0.680
chany_bottom_out[6] O *C 74.980 0.680
chany_bottom_out[7] O *C 60.720 0.680
chany_bottom_out[8] O *C 63.480 0.680
chany_bottom_out[9] O *C 54.280 0.680
chany_bottom_out[10] O *C 93.380 0.680
chany_bottom_out[11] O *C 74.060 0.680
chany_bottom_out[12] O *C 80.500 0.680
chany_bottom_out[13] O *C 61.640 0.680
chany_bottom_out[14] O *C 97.520 0.680
chany_bottom_out[15] O *C 55.200 0.680
chany_bottom_out[16] O *C 64.400 0.680
chany_bottom_out[17] O *C 58.880 0.680
chany_bottom_out[18] O *C 73.140 0.680
chany_bottom_out[19] O *C 70.840 0.680
chanx_left_out[0] O *C 0.690 80.240
chanx_left_out[1] O *C 0.690 93.840
chanx_left_out[2] O *C 0.690 34.000
chanx_left_out[3] O *C 0.690 48.960
chanx_left_out[4] O *C 0.690 58.480
chanx_left_out[5] O *C 0.690 70.720
chanx_left_out[6] O *C 0.690 43.520
chanx_left_out[7] O *C 0.690 47.600
chanx_left_out[8] O *C 0.690 85.680
chanx_left_out[9] O *C 0.690 65.280
chanx_left_out[10] O *C 0.690 97.920
chanx_left_out[11] O *C 0.690 92.480
chanx_left_out[12] O *C 0.690 82.960
chanx_left_out[13] O *C 0.690 87.040
chanx_left_out[14] O *C 0.690 69.360
chanx_left_out[15] O *C 0.690 44.880
chanx_left_out[16] O *C 0.690 54.400
chanx_left_out[17] O *C 0.690 91.120
chanx_left_out[18] O *C 0.690 66.640
chanx_left_out[19] O *C 0.690 88.400
ccff_tail[0] O *C 0.690 77.520
VDD I *C 56.580 51.680
VSS I *C 56.580 51.680

*D_NET chany_bottom_in[0] 0.01646179 //LENGTH 155.920 LUMPCC 0.002226518 DR

*CONN
*P chany_bottom_in[0] I *L 0.29796 *C 82.340 1.290
*I BUFT_P_85:A I *L 0.001776 *C 18.400 91.120
*N chany_bottom_in[0]:2 *C 18.438 91.120
*N chany_bottom_in[0]:3 *C 25.715 91.120
*N chany_bottom_in[0]:4 *C 25.760 91.075
*N chany_bottom_in[0]:5 *C 25.760 83.005
*N chany_bottom_in[0]:6 *C 25.805 82.960
*N chany_bottom_in[0]:7 *C 28.060 82.960
*N chany_bottom_in[0]:8 *C 28.095 82.620
*N chany_bottom_in[0]:9 *C 79.995 82.620
*N chany_bottom_in[0]:10 *C 80.040 82.575
*N chany_bottom_in[0]:11 *C 80.040 30.658
*N chany_bottom_in[0]:12 *C 80.047 30.600
*N chany_bottom_in[0]:13 *C 82.333 30.600
*N chany_bottom_in[0]:14 *C 82.340 30.543

*CAP
0 chany_bottom_in[0] 0.001484762
1 BUFT_P_85:A 1e-06
2 chany_bottom_in[0]:2 0.0003794302
3 chany_bottom_in[0]:3 0.0003794302
4 chany_bottom_in[0]:4 0.0003426599
5 chany_bottom_in[0]:5 0.0003426599
6 chany_bottom_in[0]:6 0.0001393757
7 chany_bottom_in[0]:7 0.0001685122
8 chany_bottom_in[0]:8 0.002204178
9 chany_bottom_in[0]:9 0.002175042
10 chany_bottom_in[0]:10 0.002401354
11 chany_bottom_in[0]:11 0.002401354
12 chany_bottom_in[0]:12 0.000165374
13 chany_bottom_in[0]:13 0.000165374
14 chany_bottom_in[0]:14 0.001484762
15 chany_bottom_in[0]:4 chany_bottom_in[10]:5 3.89766e-05
16 chany_bottom_in[0]:6 chany_bottom_in[10]:9 3.254965e-05
17 chany_bottom_in[0]:5 chany_bottom_in[10]:6 3.89766e-05
18 chany_bottom_in[0]:9 chany_bottom_in[10]:12 0.0006577841
19 chany_bottom_in[0]:9 chany_bottom_in[10]:10 1.730588e-06
20 chany_bottom_in[0]:7 chany_bottom_in[10]:10 3.254965e-05
21 chany_bottom_in[0]:8 chany_bottom_in[10]:9 1.730588e-06
22 chany_bottom_in[0]:8 chany_bottom_in[10]:11 0.0006577841
23 chany_bottom_in[0] mux_tree_tapbuf_size2_13_sram[1]:8 0.0001131313
24 chany_bottom_in[0]:10 mux_tree_tapbuf_size2_13_sram[1]:4 2.119742e-06
25 chany_bottom_in[0]:11 mux_tree_tapbuf_size2_13_sram[1]:9 2.119742e-06
26 chany_bottom_in[0]:14 mux_tree_tapbuf_size2_13_sram[1]:9 0.0001131313
27 chany_bottom_in[0]:10 mux_tree_tapbuf_size2_15_sram[0]:7 0.0001698953
28 chany_bottom_in[0]:11 mux_tree_tapbuf_size2_15_sram[0]:6 0.0001698953
29 chany_bottom_in[0] mux_bottom_track_23/sky130_fd_sc_hd__mux2_1_0_X[0]:4 9.707203e-05
30 chany_bottom_in[0]:14 mux_bottom_track_23/sky130_fd_sc_hd__mux2_1_0_X[0]:5 9.707203e-05

*RES
0 chany_bottom_in[0] chany_bottom_in[0]:14 0.02611831
1 chany_bottom_in[0]:2 BUFT_P_85:A 0.152
2 chany_bottom_in[0]:3 chany_bottom_in[0]:2 0.006497768
3 chany_bottom_in[0]:4 chany_bottom_in[0]:3 0.0045
4 chany_bottom_in[0]:6 chany_bottom_in[0]:5 0.0045
5 chany_bottom_in[0]:5 chany_bottom_in[0]:4 0.007205357
6 chany_bottom_in[0]:9 chany_bottom_in[0]:8 0.04633929
7 chany_bottom_in[0]:10 chany_bottom_in[0]:9 0.0045
8 chany_bottom_in[0]:11 chany_bottom_in[0]:10 0.04635492
9 chany_bottom_in[0]:12 chany_bottom_in[0]:11 0.00341
10 chany_bottom_in[0]:14 chany_bottom_in[0]:13 0.00341
11 chany_bottom_in[0]:13 chany_bottom_in[0]:12 0.0003579833
12 chany_bottom_in[0]:7 chany_bottom_in[0]:6 0.002013393
13 chany_bottom_in[0]:8 chany_bottom_in[0]:7 0.0002297298

*END

*D_NET chany_bottom_in[14] 0.01346214 //LENGTH 100.560 LUMPCC 0.004798342 DR

*CONN
*P chany_bottom_in[14] I *L 0.29796 *C 66.240 1.325
*I BUFT_RR_54:A I *L 0.001776 *C 13.340 44.880
*N chany_bottom_in[14]:2 *C 13.378 44.880
*N chany_bottom_in[14]:3 *C 13.755 44.880
*N chany_bottom_in[14]:4 *C 13.800 44.835
*N chany_bottom_in[14]:5 *C 13.800 41.538
*N chany_bottom_in[14]:6 *C 13.808 41.480
*N chany_bottom_in[14]:7 *C 35.860 41.480
*N chany_bottom_in[14]:8 *C 35.880 41.473
*N chany_bottom_in[14]:9 *C 35.880 2.048
*N chany_bottom_in[14]:10 *C 35.880 2.035
*N chany_bottom_in[14]:11 *C 35.880 1.360
*N chany_bottom_in[14]:12 *C 58.880 1.360
*N chany_bottom_in[14]:13 *C 58.880 2.040
*N chany_bottom_in[14]:14 *C 66.233 2.040
*N chany_bottom_in[14]:15 *C 66.240 1.983

*CAP
0 chany_bottom_in[14] 5.476408e-05
1 BUFT_RR_54:A 1e-06
2 chany_bottom_in[14]:2 4.582798e-05
3 chany_bottom_in[14]:3 4.582798e-05
4 chany_bottom_in[14]:4 0.0001401015
5 chany_bottom_in[14]:5 0.0001401015
6 chany_bottom_in[14]:6 0.001037666
7 chany_bottom_in[14]:7 0.001037666
8 chany_bottom_in[14]:8 0.001618953
9 chany_bottom_in[14]:9 0.001618953
10 chany_bottom_in[14]:10 4.745892e-05
11 chany_bottom_in[14]:11 0.001062548
12 chany_bottom_in[14]:12 0.001065788
13 chany_bottom_in[14]:13 0.0003715384
14 chany_bottom_in[14]:14 0.0003208405
15 chany_bottom_in[14]:15 5.476408e-05
16 chany_bottom_in[14]:6 chany_bottom_in[2]:6 0.0002602187
17 chany_bottom_in[14]:7 chany_bottom_in[2]:7 0.0002602187
18 chany_bottom_in[14]:8 chany_bottom_in[5]:8 0.0003682282
19 chany_bottom_in[14]:9 chany_bottom_in[5]:9 0.0003682282
20 chany_bottom_in[14]:14 chany_bottom_in[5]:11 0.0001792866
21 chany_bottom_in[14]:11 chany_bottom_in[5]:10 0.0002895194
22 chany_bottom_in[14]:12 chany_bottom_in[5]:11 0.0002895194
23 chany_bottom_in[14]:13 chany_bottom_in[5]:10 0.0001792866
24 chany_bottom_in[14]:4 bottom_left_grid_pin_34_[0]:7 9.551924e-05
25 chany_bottom_in[14]:5 bottom_left_grid_pin_34_[0]:8 9.551924e-05
26 chany_bottom_in[14]:8 bottom_left_grid_pin_34_[0]:18 7.839109e-05
27 chany_bottom_in[14]:8 bottom_left_grid_pin_34_[0]:33 3.8771e-05
28 chany_bottom_in[14]:8 bottom_left_grid_pin_34_[0]:20 6.725767e-05
29 chany_bottom_in[14]:8 bottom_left_grid_pin_34_[0]:27 4.570755e-05
30 chany_bottom_in[14]:9 bottom_left_grid_pin_34_[0]:26 6.725767e-05
31 chany_bottom_in[14]:9 bottom_left_grid_pin_34_[0]:33 4.570755e-05
32 chany_bottom_in[14]:9 bottom_left_grid_pin_34_[0]:34 3.8771e-05
33 chany_bottom_in[14]:9 bottom_left_grid_pin_34_[0]:19 7.839109e-05
34 chany_bottom_in[14]:6 chanx_left_in[1] 0.0005008007
35 chany_bottom_in[14]:7 chanx_left_in[1]:7 0.0005008007
36 chany_bottom_in[14]:4 mux_tree_tapbuf_size6_0_sram[2]:8 3.123416e-06
37 chany_bottom_in[14]:5 mux_tree_tapbuf_size6_0_sram[2]:9 3.123416e-06
38 chany_bottom_in[14]:6 mux_tree_tapbuf_size6_0_sram[2]:10 0.0004723475
39 chany_bottom_in[14]:7 mux_tree_tapbuf_size6_0_sram[2]:11 0.0004723475

*RES
0 chany_bottom_in[14] chany_bottom_in[14]:15 0.0005870535
1 chany_bottom_in[14]:2 BUFT_RR_54:A 0.152
2 chany_bottom_in[14]:3 chany_bottom_in[14]:2 0.0003370536
3 chany_bottom_in[14]:4 chany_bottom_in[14]:3 0.0045
4 chany_bottom_in[14]:5 chany_bottom_in[14]:4 0.002944196
5 chany_bottom_in[14]:6 chany_bottom_in[14]:5 0.00341
6 chany_bottom_in[14]:7 chany_bottom_in[14]:6 0.003454891
7 chany_bottom_in[14]:8 chany_bottom_in[14]:7 0.00341
8 chany_bottom_in[14]:10 chany_bottom_in[14]:9 0.00341
9 chany_bottom_in[14]:9 chany_bottom_in[14]:8 0.006176583
10 chany_bottom_in[14]:15 chany_bottom_in[14]:14 0.00341
11 chany_bottom_in[14]:14 chany_bottom_in[14]:13 0.001151892
12 chany_bottom_in[14]:11 chany_bottom_in[14]:10 0.00010575
13 chany_bottom_in[14]:12 chany_bottom_in[14]:11 0.003603333
14 chany_bottom_in[14]:13 chany_bottom_in[14]:12 0.0001065333

*END

*D_NET chany_bottom_in[15] 0.0136783 //LENGTH 100.810 LUMPCC 0.003025736 DR

*CONN
*P chany_bottom_in[15] I *L 0.29796 *C 53.360 1.325
*I BUFT_RR_55:A I *L 0.001776 *C 10.120 55.760
*N chany_bottom_in[15]:2 *C 10.120 55.760
*N chany_bottom_in[15]:3 *C 10.120 56.100
*N chany_bottom_in[15]:4 *C 10.120 56.055
*N chany_bottom_in[15]:5 *C 10.120 50.378
*N chany_bottom_in[15]:6 *C 10.128 50.320
*N chany_bottom_in[15]:7 *C 22.060 50.320
*N chany_bottom_in[15]:8 *C 22.080 50.312
*N chany_bottom_in[15]:9 *C 22.080 40.128
*N chany_bottom_in[15]:10 *C 22.100 40.120
*N chany_bottom_in[15]:11 *C 42.773 40.120
*N chany_bottom_in[15]:12 *C 42.780 40.062
*N chany_bottom_in[15]:13 *C 42.780 3.785
*N chany_bottom_in[15]:14 *C 42.825 3.740
*N chany_bottom_in[15]:15 *C 53.315 3.740
*N chany_bottom_in[15]:16 *C 53.360 3.695

*CAP
0 chany_bottom_in[15] 0.0001497332
1 BUFT_RR_55:A 1e-06
2 chany_bottom_in[15]:2 7.349033e-05
3 chany_bottom_in[15]:3 7.875406e-05
4 chany_bottom_in[15]:4 0.0003668258
5 chany_bottom_in[15]:5 0.0003668258
6 chany_bottom_in[15]:6 0.0005951954
7 chany_bottom_in[15]:7 0.0005951954
8 chany_bottom_in[15]:8 0.0007385282
9 chany_bottom_in[15]:9 0.0007385282
10 chany_bottom_in[15]:10 0.001096599
11 chany_bottom_in[15]:11 0.001096599
12 chany_bottom_in[15]:12 0.001711828
13 chany_bottom_in[15]:13 0.001711828
14 chany_bottom_in[15]:14 0.0005909475
15 chany_bottom_in[15]:15 0.0005909475
16 chany_bottom_in[15]:16 0.0001497332
17 chany_bottom_in[15]:10 chanx_left_in[0]:12 0.0004600522
18 chany_bottom_in[15]:11 chanx_left_in[0]:11 0.0004600522
19 chany_bottom_in[15]:6 chanx_left_in[16]:7 0.0004552651
20 chany_bottom_in[15]:6 chanx_left_in[16]:11 5.597575e-06
21 chany_bottom_in[15]:7 chanx_left_in[16]:6 0.0004552651
22 chany_bottom_in[15]:7 chanx_left_in[16]:10 5.597575e-06
23 chany_bottom_in[15]:10 mux_tree_tapbuf_size6_0_sram[2]:10 0.0001230968
24 chany_bottom_in[15]:11 mux_tree_tapbuf_size6_0_sram[2]:11 0.0001230968
25 chany_bottom_in[15]:12 mux_bottom_track_5/sky130_fd_sc_hd__mux2_1_5_X[0]:5 8.59623e-05
26 chany_bottom_in[15]:14 mux_bottom_track_5/sky130_fd_sc_hd__mux2_1_5_X[0]:3 4.482516e-05
27 chany_bottom_in[15]:13 mux_bottom_track_5/sky130_fd_sc_hd__mux2_1_5_X[0]:4 8.59623e-05
28 chany_bottom_in[15]:15 mux_bottom_track_5/sky130_fd_sc_hd__mux2_1_5_X[0]:2 4.482516e-05
29 chany_bottom_in[15]:12 mux_bottom_track_9/sky130_fd_sc_hd__mux2_1_0_X[0]:7 4.402085e-05
30 chany_bottom_in[15]:13 mux_bottom_track_9/sky130_fd_sc_hd__mux2_1_0_X[0]:6 4.402085e-05
31 chany_bottom_in[15]:12 mux_bottom_track_9/sky130_fd_sc_hd__mux2_1_1_X[0]:5 0.0001505319
32 chany_bottom_in[15]:13 mux_bottom_track_9/sky130_fd_sc_hd__mux2_1_1_X[0]:4 0.0001505319
33 chany_bottom_in[15]:4 ropt_net_128:5 6.357194e-05
34 chany_bottom_in[15]:5 ropt_net_128:6 6.357194e-05
35 chany_bottom_in[15]:4 ropt_net_131:9 1.155373e-05
36 chany_bottom_in[15]:5 ropt_net_131:8 1.155373e-05
37 chany_bottom_in[15]:6 ropt_net_131:6 6.839067e-05
38 chany_bottom_in[15]:7 ropt_net_131:7 6.839067e-05

*RES
0 chany_bottom_in[15] chany_bottom_in[15]:16 0.002116072
1 chany_bottom_in[15]:2 BUFT_RR_55:A 0.152
2 chany_bottom_in[15]:3 chany_bottom_in[15]:2 0.0001465517
3 chany_bottom_in[15]:4 chany_bottom_in[15]:3 0.0045
4 chany_bottom_in[15]:5 chany_bottom_in[15]:4 0.005069196
5 chany_bottom_in[15]:6 chany_bottom_in[15]:5 0.00341
6 chany_bottom_in[15]:7 chany_bottom_in[15]:6 0.001869425
7 chany_bottom_in[15]:8 chany_bottom_in[15]:7 0.00341
8 chany_bottom_in[15]:10 chany_bottom_in[15]:9 0.00341
9 chany_bottom_in[15]:9 chany_bottom_in[15]:8 0.00159565
10 chany_bottom_in[15]:12 chany_bottom_in[15]:11 0.00341
11 chany_bottom_in[15]:11 chany_bottom_in[15]:10 0.003238691
12 chany_bottom_in[15]:14 chany_bottom_in[15]:13 0.0045
13 chany_bottom_in[15]:13 chany_bottom_in[15]:12 0.03239063
14 chany_bottom_in[15]:15 chany_bottom_in[15]:14 0.009366072
15 chany_bottom_in[15]:16 chany_bottom_in[15]:15 0.0045

*END

*D_NET chany_bottom_in[16] 0.01706615 //LENGTH 160.095 LUMPCC 0.005788227 DR

*CONN
*P chany_bottom_in[16] I *L 0.29796 *C 76.820 1.325
*I ropt_mt_inst_732:A I *L 0.001766 *C 12.420 93.840
*N chany_bottom_in[16]:2 *C 12.420 93.840
*N chany_bottom_in[16]:3 *C 12.420 93.795
*N chany_bottom_in[16]:4 *C 12.420 88.105
*N chany_bottom_in[16]:5 *C 12.420 88.060
*N chany_bottom_in[16]:6 *C 17.435 88.060
*N chany_bottom_in[16]:7 *C 17.480 88.015
*N chany_bottom_in[16]:8 *C 17.480 83.345
*N chany_bottom_in[16]:9 *C 17.525 83.300
*N chany_bottom_in[16]:10 *C 18.400 83.300
*N chany_bottom_in[16]:11 *C 18.400 82.960
*N chany_bottom_in[16]:12 *C 20.195 82.960
*N chany_bottom_in[16]:13 *C 20.240 82.915
*N chany_bottom_in[16]:14 *C 20.240 74.178
*N chany_bottom_in[16]:15 *C 20.248 74.120
*N chany_bottom_in[16]:16 *C 70.075 74.120
*N chany_bottom_in[16]:17 *C 76.340 74.120
*N chany_bottom_in[16]:18 *C 76.360 74.112
*N chany_bottom_in[16]:19 *C 76.360 51.875
*N chany_bottom_in[16]:20 *C 76.360 2.048
*N chany_bottom_in[16]:21 *C 76.375 2.040
*N chany_bottom_in[16]:22 *C 76.818 2.040
*N chany_bottom_in[16]:23 *C 76.820 1.983

*CAP
0 chany_bottom_in[16] 5.60541e-05
1 ropt_mt_inst_732:A 1e-06
2 chany_bottom_in[16]:2 3.709922e-05
3 chany_bottom_in[16]:3 0.0003209672
4 chany_bottom_in[16]:4 0.0003209672
5 chany_bottom_in[16]:5 0.0003154426
6 chany_bottom_in[16]:6 0.0002792362
7 chany_bottom_in[16]:7 0.0002439708
8 chany_bottom_in[16]:8 0.0002439708
9 chany_bottom_in[16]:9 6.820717e-05
10 chany_bottom_in[16]:10 9.135828e-05
11 chany_bottom_in[16]:11 0.0001313779
12 chany_bottom_in[16]:12 0.0001082268
13 chany_bottom_in[16]:13 0.0004437593
14 chany_bottom_in[16]:14 0.0004437593
15 chany_bottom_in[16]:15 0.001966171
16 chany_bottom_in[16]:16 0.002276281
17 chany_bottom_in[16]:17 0.0003101104
18 chany_bottom_in[16]:18 0.0005345692
19 chany_bottom_in[16]:19 0.00172457
20 chany_bottom_in[16]:20 0.001190001
21 chany_bottom_in[16]:21 5.738336e-05
22 chany_bottom_in[16]:22 5.738336e-05
23 chany_bottom_in[16]:23 5.60541e-05
24 chany_bottom_in[16]:18 chany_bottom_in[12]:11 0.0002848014
25 chany_bottom_in[16]:18 chany_bottom_in[12]:12 3.003063e-05
26 chany_bottom_in[16]:21 chany_bottom_in[12]:14 5.743482e-06
27 chany_bottom_in[16]:20 chany_bottom_in[12]:13 0.0006709116
28 chany_bottom_in[16]:22 chany_bottom_in[12]:15 5.743482e-06
29 chany_bottom_in[16]:19 chany_bottom_in[12]:12 0.000955713
30 chany_bottom_in[16]:19 chany_bottom_in[12]:13 3.003063e-05
31 chany_bottom_in[16]:13 prog_clk[0]:106 1.243885e-05
32 chany_bottom_in[16]:14 prog_clk[0]:112 1.243885e-05
33 chany_bottom_in[16]:15 prog_clk[0]:91 0.0001235046
34 chany_bottom_in[16]:15 prog_clk[0]:64 0.0001505029
35 chany_bottom_in[16]:16 prog_clk[0]:90 0.0001235046
36 chany_bottom_in[16]:16 prog_clk[0]:63 0.0001505029
37 chany_bottom_in[16]:15 chany_bottom_in[11]:6 0.0003172933
38 chany_bottom_in[16]:17 chany_bottom_in[11]:7 4.696229e-05
39 chany_bottom_in[16]:18 chany_bottom_in[11]:8 0.0003104578
40 chany_bottom_in[16]:18 chany_bottom_in[11]:9 1.152764e-05
41 chany_bottom_in[16]:20 chany_bottom_in[11]:10 0.0007190357
42 chany_bottom_in[16]:16 chany_bottom_in[11]:6 4.696229e-05
43 chany_bottom_in[16]:16 chany_bottom_in[11]:7 0.0003172933
44 chany_bottom_in[16]:19 chany_bottom_in[11]:10 1.152764e-05
45 chany_bottom_in[16]:19 chany_bottom_in[11]:9 0.001029494
46 chany_bottom_in[16]:15 mux_left_track_1/sky130_fd_sc_hd__mux2_1_1_X[0]:6 0.0001386679
47 chany_bottom_in[16]:15 mux_left_track_1/sky130_fd_sc_hd__mux2_1_1_X[0]:7 4.236674e-05
48 chany_bottom_in[16]:17 mux_left_track_1/sky130_fd_sc_hd__mux2_1_1_X[0]:8 2.986907e-05
49 chany_bottom_in[16]:16 mux_left_track_1/sky130_fd_sc_hd__mux2_1_1_X[0]:8 4.236674e-05
50 chany_bottom_in[16]:16 mux_left_track_1/sky130_fd_sc_hd__mux2_1_1_X[0]:7 0.000168537

*RES
0 chany_bottom_in[16] chany_bottom_in[16]:23 0.0005870535
1 chany_bottom_in[16]:2 ropt_mt_inst_732:A 0.152
2 chany_bottom_in[16]:3 chany_bottom_in[16]:2 0.0045
3 chany_bottom_in[16]:5 chany_bottom_in[16]:4 0.0045
4 chany_bottom_in[16]:4 chany_bottom_in[16]:3 0.005080357
5 chany_bottom_in[16]:6 chany_bottom_in[16]:5 0.004477679
6 chany_bottom_in[16]:7 chany_bottom_in[16]:6 0.0045
7 chany_bottom_in[16]:9 chany_bottom_in[16]:8 0.0045
8 chany_bottom_in[16]:8 chany_bottom_in[16]:7 0.004169643
9 chany_bottom_in[16]:12 chany_bottom_in[16]:11 0.001602679
10 chany_bottom_in[16]:13 chany_bottom_in[16]:12 0.0045
11 chany_bottom_in[16]:14 chany_bottom_in[16]:13 0.00780134
12 chany_bottom_in[16]:15 chany_bottom_in[16]:14 0.00341
13 chany_bottom_in[16]:17 chany_bottom_in[16]:16 0.0009815167
14 chany_bottom_in[16]:18 chany_bottom_in[16]:17 0.00341
15 chany_bottom_in[16]:21 chany_bottom_in[16]:20 0.00341
16 chany_bottom_in[16]:20 chany_bottom_in[16]:19 0.007806308
17 chany_bottom_in[16]:23 chany_bottom_in[16]:22 0.00341
18 chany_bottom_in[16]:22 chany_bottom_in[16]:21 6.499218e-05
19 chany_bottom_in[16]:10 chany_bottom_in[16]:9 0.0007812501
20 chany_bottom_in[16]:11 chany_bottom_in[16]:10 0.0003035715
21 chany_bottom_in[16]:16 chany_bottom_in[16]:15 0.007806307
22 chany_bottom_in[16]:19 chany_bottom_in[16]:18 0.003483875

*END

*D_NET chany_bottom_in[17] 0.01721762 //LENGTH 142.635 LUMPCC 0.003569548 DR

*CONN
*P chany_bottom_in[17] I *L 0.29796 *C 69.920 1.290
*I ropt_mt_inst_738:A I *L 0.001767 *C 3.220 69.360
*N chany_bottom_in[17]:2 *C 3.198 69.333
*N chany_bottom_in[17]:3 *C 3.185 69.020
*N chany_bottom_in[17]:4 *C 1.885 69.020
*N chany_bottom_in[17]:5 *C 1.840 68.975
*N chany_bottom_in[17]:6 *C 1.840 58.865
*N chany_bottom_in[17]:7 *C 1.885 58.820
*N chany_bottom_in[17]:8 *C 8.740 58.820
*N chany_bottom_in[17]:9 *C 8.740 59.160
*N chany_bottom_in[17]:10 *C 18.860 59.160
*N chany_bottom_in[17]:11 *C 18.860 57.800
*N chany_bottom_in[17]:12 *C 26.680 57.800
*N chany_bottom_in[17]:13 *C 26.680 58.140
*N chany_bottom_in[17]:14 *C 42.780 58.140
*N chany_bottom_in[17]:15 *C 42.780 58.480
*N chany_bottom_in[17]:16 *C 65.275 58.480
*N chany_bottom_in[17]:17 *C 65.320 58.435
*N chany_bottom_in[17]:18 *C 65.320 23.178
*N chany_bottom_in[17]:19 *C 65.328 23.120
*N chany_bottom_in[17]:20 *C 69.913 23.120
*N chany_bottom_in[17]:21 *C 69.920 23.062

*CAP
0 chany_bottom_in[17] 0.001021971
1 ropt_mt_inst_738:A 1e-06
2 chany_bottom_in[17]:2 3.336033e-05
3 chany_bottom_in[17]:3 0.0001245354
4 chany_bottom_in[17]:4 9.117507e-05
5 chany_bottom_in[17]:5 0.0005421132
6 chany_bottom_in[17]:6 0.0005421132
7 chany_bottom_in[17]:7 0.0005056112
8 chany_bottom_in[17]:8 0.0005293657
9 chany_bottom_in[17]:9 0.0007045247
10 chany_bottom_in[17]:10 0.0007572373
11 chany_bottom_in[17]:11 0.0004836501
12 chany_bottom_in[17]:12 0.0004308336
13 chany_bottom_in[17]:13 0.000798761
14 chany_bottom_in[17]:14 0.0007996536
15 chany_bottom_in[17]:15 0.0009064401
16 chany_bottom_in[17]:16 0.000881897
17 chany_bottom_in[17]:17 0.001420481
18 chany_bottom_in[17]:18 0.001420481
19 chany_bottom_in[17]:19 0.0003154485
20 chany_bottom_in[17]:20 0.0003154485
21 chany_bottom_in[17]:21 0.001021971
22 chany_bottom_in[17]:17 prog_clk[0]:290 6.78611e-05
23 chany_bottom_in[17]:17 prog_clk[0]:283 9.122254e-05
24 chany_bottom_in[17]:17 prog_clk[0]:259 9.119186e-06
25 chany_bottom_in[17]:17 prog_clk[0]:293 4.488831e-05
26 chany_bottom_in[17]:17 prog_clk[0]:286 3.268994e-05
27 chany_bottom_in[17]:17 prog_clk[0]:271 0.0001295728
28 chany_bottom_in[17]:17 prog_clk[0]:264 4.072061e-05
29 chany_bottom_in[17]:17 prog_clk[0]:263 1.570933e-06
30 chany_bottom_in[17]:18 prog_clk[0]:294 4.488831e-05
31 chany_bottom_in[17]:18 prog_clk[0]:287 3.268994e-05
32 chany_bottom_in[17]:18 prog_clk[0]:283 0.0001295728
33 chany_bottom_in[17]:18 prog_clk[0]:262 1.570933e-06
34 chany_bottom_in[17]:18 prog_clk[0]:270 4.072061e-05
35 chany_bottom_in[17]:18 prog_clk[0]:293 6.78611e-05
36 chany_bottom_in[17]:18 prog_clk[0]:286 9.122254e-05
37 chany_bottom_in[17]:18 prog_clk[0]:263 9.119186e-06
38 chany_bottom_in[17]:19 prog_clk[0]:295 6.784438e-06
39 chany_bottom_in[17]:20 prog_clk[0]:244 6.784438e-06
40 chany_bottom_in[17] mux_tree_tapbuf_size2_5_sram[1]:7 8.300375e-05
41 chany_bottom_in[17] mux_tree_tapbuf_size2_5_sram[1]:4 0.0001311829
42 chany_bottom_in[17]:21 mux_tree_tapbuf_size2_5_sram[1]:8 8.300375e-05
43 chany_bottom_in[17]:21 mux_tree_tapbuf_size2_5_sram[1]:7 0.0001311829
44 chany_bottom_in[17]:11 mux_tree_tapbuf_size2_8_sram[1]:5 2.086405e-05
45 chany_bottom_in[17]:11 mux_tree_tapbuf_size2_8_sram[1]:4 0.000100019
46 chany_bottom_in[17]:12 mux_tree_tapbuf_size2_8_sram[1]:5 0.000100019
47 chany_bottom_in[17]:12 mux_tree_tapbuf_size2_8_sram[1]:3 2.086405e-05
48 chany_bottom_in[17]:13 mux_tree_tapbuf_size2_8_sram[1]:5 2.134946e-05
49 chany_bottom_in[17]:14 mux_tree_tapbuf_size2_8_sram[1]:3 2.134946e-05
50 chany_bottom_in[17]:8 optlc_net_106:34 1.594776e-06
51 chany_bottom_in[17]:9 optlc_net_106:33 1.594776e-06
52 chany_bottom_in[17]:13 optlc_net_106:28 0.0002855258
53 chany_bottom_in[17]:13 optlc_net_106:9 3.87902e-06
54 chany_bottom_in[17]:14 optlc_net_106:27 0.0002855258
55 chany_bottom_in[17]:14 optlc_net_106:10 3.87902e-06
56 chany_bottom_in[17]:16 mux_bottom_track_29/sky130_fd_sc_hd__mux2_1_1_X[0]:10 0.0006651818
57 chany_bottom_in[17]:13 mux_bottom_track_29/sky130_fd_sc_hd__mux2_1_1_X[0]:13 3.917657e-05
58 chany_bottom_in[17]:13 mux_bottom_track_29/sky130_fd_sc_hd__mux2_1_1_X[0]:11 8.567386e-06
59 chany_bottom_in[17]:14 mux_bottom_track_29/sky130_fd_sc_hd__mux2_1_1_X[0]:10 8.567386e-06
60 chany_bottom_in[17]:14 mux_bottom_track_29/sky130_fd_sc_hd__mux2_1_1_X[0]:12 3.917657e-05
61 chany_bottom_in[17]:15 mux_bottom_track_29/sky130_fd_sc_hd__mux2_1_1_X[0]:11 0.0006651818

*RES
0 chany_bottom_in[17] chany_bottom_in[17]:21 0.01943973
1 chany_bottom_in[17]:2 ropt_mt_inst_738:A 0.152
2 chany_bottom_in[17]:4 chany_bottom_in[17]:3 0.001160714
3 chany_bottom_in[17]:5 chany_bottom_in[17]:4 0.0045
4 chany_bottom_in[17]:7 chany_bottom_in[17]:6 0.0045
5 chany_bottom_in[17]:6 chany_bottom_in[17]:5 0.009026786
6 chany_bottom_in[17]:16 chany_bottom_in[17]:15 0.02008482
7 chany_bottom_in[17]:17 chany_bottom_in[17]:16 0.0045
8 chany_bottom_in[17]:18 chany_bottom_in[17]:17 0.03147991
9 chany_bottom_in[17]:19 chany_bottom_in[17]:18 0.00341
10 chany_bottom_in[17]:21 chany_bottom_in[17]:20 0.00341
11 chany_bottom_in[17]:20 chany_bottom_in[17]:19 0.0007183166
12 chany_bottom_in[17]:8 chany_bottom_in[17]:7 0.006120536
13 chany_bottom_in[17]:3 chany_bottom_in[17]:2 0.0002111487
14 chany_bottom_in[17]:9 chany_bottom_in[17]:8 0.0003035715
15 chany_bottom_in[17]:10 chany_bottom_in[17]:9 0.009035714
16 chany_bottom_in[17]:11 chany_bottom_in[17]:10 0.001214286
17 chany_bottom_in[17]:12 chany_bottom_in[17]:11 0.006982143
18 chany_bottom_in[17]:13 chany_bottom_in[17]:12 0.0003035715
19 chany_bottom_in[17]:14 chany_bottom_in[17]:13 0.014375
20 chany_bottom_in[17]:15 chany_bottom_in[17]:14 0.0003035715

*END

*D_NET chany_bottom_in[18] 0.0136886 //LENGTH 129.015 LUMPCC 0.002615544 DR

*CONN
*P chany_bottom_in[18] I *L 0.29796 *C 57.500 1.290
*I BUFT_RR_74:A I *L 0.001776 *C 16.100 85.680
*N chany_bottom_in[18]:2 *C 16.137 85.680
*N chany_bottom_in[18]:3 *C 22.035 85.680
*N chany_bottom_in[18]:4 *C 22.080 85.635
*N chany_bottom_in[18]:5 *C 22.080 80.965
*N chany_bottom_in[18]:6 *C 22.125 80.920
*N chany_bottom_in[18]:7 *C 23.385 80.950
*N chany_bottom_in[18]:8 *C 23.453 80.910
*N chany_bottom_in[18]:9 *C 23.460 80.285
*N chany_bottom_in[18]:10 *C 23.505 80.240
*N chany_bottom_in[18]:11 *C 24.335 80.240
*N chany_bottom_in[18]:12 *C 24.380 80.240
*N chany_bottom_in[18]:13 *C 24.388 80.240
*N chany_bottom_in[18]:14 *C 57.953 80.240
*N chany_bottom_in[18]:15 *C 57.960 80.183
*N chany_bottom_in[18]:16 *C 57.960 71.400
*N chany_bottom_in[18]:17 *C 57.500 71.400
*N chany_bottom_in[18]:18 *C 57.500 51.290

*CAP
0 chany_bottom_in[18] 0.002234814
1 BUFT_RR_74:A 1e-06
2 chany_bottom_in[18]:2 0.0003137744
3 chany_bottom_in[18]:3 0.0003137744
4 chany_bottom_in[18]:4 0.0002432176
5 chany_bottom_in[18]:5 0.0002432176
6 chany_bottom_in[18]:6 9.994878e-05
7 chany_bottom_in[18]:7 9.994878e-05
8 chany_bottom_in[18]:8 4.967274e-05
9 chany_bottom_in[18]:9 4.967274e-05
10 chany_bottom_in[18]:10 6.516669e-05
11 chany_bottom_in[18]:11 6.516669e-05
12 chany_bottom_in[18]:12 3.337878e-05
13 chany_bottom_in[18]:13 0.001026599
14 chany_bottom_in[18]:14 0.001026599
15 chany_bottom_in[18]:15 0.0004466943
16 chany_bottom_in[18]:16 0.0004753039
17 chany_bottom_in[18]:17 0.001039452
18 chany_bottom_in[18]:18 0.003245657
19 chany_bottom_in[18]:13 chany_bottom_in[11]:6 0.0003112265
20 chany_bottom_in[18]:14 chany_bottom_in[11]:7 0.0003112265
21 chany_bottom_in[18]:13 chanx_left_in[19]:9 0.0005106003
22 chany_bottom_in[18]:13 chanx_left_in[19]:8 2.819108e-05
23 chany_bottom_in[18]:14 chanx_left_in[19]:7 2.819108e-05
24 chany_bottom_in[18]:14 chanx_left_in[19]:8 0.0005106003
25 chany_bottom_in[18] mux_tree_tapbuf_size2_mem_3_ccff_tail[0]:4 5.234602e-05
26 chany_bottom_in[18]:18 mux_tree_tapbuf_size2_mem_3_ccff_tail[0]:5 5.234602e-05
27 chany_bottom_in[18] mux_bottom_track_11/sky130_fd_sc_hd__mux2_1_0_X[0]:4 0.0001016824
28 chany_bottom_in[18]:18 mux_bottom_track_11/sky130_fd_sc_hd__mux2_1_0_X[0]:5 0.0001016824
29 chany_bottom_in[18] mux_bottom_track_35/sky130_fd_sc_hd__mux2_1_1_X[0]:4 0.0003037257
30 chany_bottom_in[18]:18 mux_bottom_track_35/sky130_fd_sc_hd__mux2_1_1_X[0]:5 0.0003037257

*RES
0 chany_bottom_in[18] chany_bottom_in[18]:18 0.04464287
1 chany_bottom_in[18]:2 BUFT_RR_74:A 0.152
2 chany_bottom_in[18]:3 chany_bottom_in[18]:2 0.005265625
3 chany_bottom_in[18]:4 chany_bottom_in[18]:3 0.0045
4 chany_bottom_in[18]:6 chany_bottom_in[18]:5 0.0045
5 chany_bottom_in[18]:5 chany_bottom_in[18]:4 0.004169643
6 chany_bottom_in[18]:7 chany_bottom_in[18]:6 0.001125
7 chany_bottom_in[18]:8 chany_bottom_in[18]:7 0.0045
8 chany_bottom_in[18]:10 chany_bottom_in[18]:9 0.0045
9 chany_bottom_in[18]:9 chany_bottom_in[18]:8 0.0005580357
10 chany_bottom_in[18]:11 chany_bottom_in[18]:10 0.0007410714
11 chany_bottom_in[18]:12 chany_bottom_in[18]:11 0.0045
12 chany_bottom_in[18]:13 chany_bottom_in[18]:12 0.00341
13 chany_bottom_in[18]:15 chany_bottom_in[18]:14 0.00341
14 chany_bottom_in[18]:14 chany_bottom_in[18]:13 0.005258516
15 chany_bottom_in[18]:17 chany_bottom_in[18]:16 0.0004107143
16 chany_bottom_in[18]:16 chany_bottom_in[18]:15 0.007841518
17 chany_bottom_in[18]:18 chany_bottom_in[18]:17 0.01795536

*END

*D_NET prog_clk[0] 0.07021943 //LENGTH 511.645 LUMPCC 0.01586134 DR

*CONN
*P prog_clk[0] I *L 0.29796 *C 30.820 1.290
*I mem_bottom_track_7\/sky130_fd_sc_hd__dfxbp_1_2_:CLK I *L 0.001922 *C 31.545 4.080
*I mem_bottom_track_9\/sky130_fd_sc_hd__dfxbp_1_0_:CLK I *L 0.001922 *C 38.905 9.520
*I mem_bottom_track_9\/sky130_fd_sc_hd__dfxbp_1_1_:CLK I *L 0.001922 *C 47.645 9.520
*I mem_bottom_track_39\/sky130_fd_sc_hd__dfxbp_1_0_:CLK I *L 0.001922 *C 64.205 25.840
*I mem_bottom_track_37\/sky130_fd_sc_hd__dfxbp_1_1_:CLK I *L 0.001922 *C 66.505 34.000
*I mem_bottom_track_25\/sky130_fd_sc_hd__dfxbp_1_0_:CLK I *L 0.001922 *C 70.185 42.160
*I mem_left_track_1\/sky130_fd_sc_hd__dfxbp_1_0_:CLK I *L 0.001922 *C 77.545 39.440
*I mem_left_track_1\/sky130_fd_sc_hd__dfxbp_1_1_:CLK I *L 0.001922 *C 75.245 50.320
*I mem_left_track_5\/sky130_fd_sc_hd__dfxbp_1_0_:CLK I *L 0.001922 *C 66.965 55.760
*I mem_left_track_5\/sky130_fd_sc_hd__dfxbp_1_1_:CLK I *L 0.001922 *C 69.265 58.480
*I mem_left_track_9\/sky130_fd_sc_hd__dfxbp_1_0_:CLK I *L 0.001922 *C 72.485 66.640